266
 energy: -450.864145737288 gnorm: 0.000523223719 xtb: 6.4.1 (bd6e46d)
C        57.37034343038873    3.37966973016592    0.65888497846965
C        58.34409088552366    2.46492366036603    0.48508776542528
C        57.66959214085389    1.21406392275374    0.18806211415741
C        58.35441563416445    0.00773855216977   -0.05587831299226
C        57.72288523093297   -1.22071074223676   -0.30756125462802
C        58.34216069877235   -2.47035544204919   -0.57747030691828
C        57.35015535556433   -3.38974081269568   -0.76101461702165
C        56.10263745313528   -2.72033737072782   -0.61378481726563
N        56.38053499705374   -1.41532961571430   -0.34164314721491
C        54.84327456788861   -3.28932957333156   -0.73322441278522
C        53.61460262713928   -2.65361437696483   -0.62147340309971
C        52.34937163299092   -3.35713791743405   -0.77715775377780
C        51.38353877651327   -2.43365725916997   -0.61730473348217
C        52.06614305456748   -1.17403649578977   -0.36490570242555
N        53.40512147781335   -1.34441055339244   -0.37307691439491
C        51.39992706201819    0.02588236298001   -0.14993857910896
C        52.00739545282688    1.24758577538855    0.09601252276319
C        51.38475101538121    2.50683205144370    0.33082343733900
C        52.37271199157965    3.42444748159980    0.53325705996610
C        53.62432958223312    2.75052030069203    0.42606642967281
N        53.35106569281653    1.44584686511783    0.16127834271710
C        54.88383494194946    3.31274576240202    0.57079746734724
C        56.11257189654832    2.67716654685008    0.46886714436007
N        56.33489235809695    1.37047037229793    0.19056083565861
H        57.45779627289403    4.42300275040296    0.89431392675905
H        59.40762007784261    2.58346815054363    0.55809329126685
H        59.40117288400837   -2.62886386546783   -0.63399930908965
H        57.46122925911212   -4.43344554690859   -0.98208414506021
H        55.70043990350677   -0.67932761761909   -0.18985288831120
H        54.81936419650575   -4.34952566502352   -0.94462138667912
H        52.25600625140911   -4.40696400268350   -0.97984616096870
H        50.31778101065630   -2.55299962066144   -0.65885965928971
H        50.32001815517873    0.00552916963435   -0.17477708046203
H        50.32500982274112    2.67279147314418    0.34158712596529
H        52.25969259196108    4.47147558973327    0.73806354005777
H        54.03072977754438    0.70670802481609    0.02758672031370
H        54.91003161377710    4.37120670415113    0.79100394026599
C       118.64118060333816   -3.45354977152224    0.02493366981351
C       117.67252772146152   -2.51724194369333    0.01465036115186
C       118.35522366524206   -1.23571098435862    0.00820550390149
C       117.67722258405544   -0.00182870407343   -0.01275786885378
C       118.31151381606676    1.24982717314854   -0.04910975435388
C       117.69322578851576    2.52903878061329   -0.05049380377384
C       118.68591186090184    3.46536837247416   -0.08119324255844
C       119.93263010996499    2.77860091865616   -0.09451980128719
N       119.65375646557059    1.44588581544071   -0.07465027550785
C       121.19343931275371    3.35635448663691   -0.11652856602110
C       122.41918974135581    2.70526490288664   -0.11102322133431
C       123.68822425602862    3.41865941543256   -0.13073388467323
C       124.64926504489652    2.47669504709164   -0.11366651374021
C       123.95992739995972    1.19591091217001   -0.08355561819247
N       122.62170181038920    1.37179513531692   -0.08309842934111
C       124.62100614722949   -0.02566748290504   -0.05959612714126
C       124.01028357407114   -1.26989743665040   -0.02963979375145
C       124.63117940141525   -2.55165282415274   -0.01163932041736
C       123.64179231532495   -3.48949476489531    0.01225604434660
C       122.39103103276702   -2.80569283139805    0.01044216508660
N       122.66613217967509   -1.47501886574959   -0.01447537503325
C       121.12989986220913   -3.38239457047439    0.02659879596235
C       119.90366610421528   -2.73398551087717    0.02195684629931
N       119.68929780297410   -1.39678870821326    0.00981063005781
H       118.54730013108963   -4.52255038144583    0.03028251373981
H       116.60731261091208   -2.64249451299305   -0.00234231539597
H       116.63435222855129    2.69628182675281   -0.01956961995876
H       118.57590503556270    4.53231228071054   -0.08997741644642
H       120.33496574070197    0.69557905297188   -0.07150895259932
H       121.22139281822143    4.43710571003758   -0.13575759796368
H       123.78719767725687    4.48711409876845   -0.15394402905370
H       125.71580757239063    2.59611604559106   -0.11940869349033
H       125.70121042541777   -0.00493132283853   -0.06609265263096
H       125.69086503515516   -2.71816239476960   -0.01768488930552
H       123.75323550893637   -4.55638736209039    0.02933322431915
H       121.98640648964353   -0.72411115073753   -0.02217202205466
H       121.10008333995502   -4.46326951385528    0.04134356425638
C        59.75500385772882    0.02640410725360   -0.04531988540633
C        60.96854463750584    0.04532352026084   -0.03974519868768
C        70.80008330132493    0.00253389336501    0.03020256539675
C        72.01375325739788    0.02038377746136    0.03473177379537
C        81.86285789568923    0.01452716668005   -0.05325246139700
C        83.07749253343428    0.03609206686010   -0.04909596612020
C        92.93644097608498    0.00686476904999    0.03891904833905
C        94.15085530268330    0.03053582067814    0.04950736921290
C       104.01045997667806   -0.00066941487311    0.12903740039911
C       105.22475838946637    0.01544000381484    0.10905742402769
C       115.06314912878945   -0.03373556803933    0.01722811293712
C       116.27636054151557   -0.01673217067204    0.00226859259394
C        63.34172282264073   -3.25366063200019    0.93911704885000
C        62.36955518278753   -2.35428704373344    0.69152350462309
C        63.04646143527534   -1.12921511132356    0.30855604667276
C        62.36832316605328    0.05696140195047   -0.03404842881112
C        63.01903744414084    1.25437917515604   -0.37310882920576
C        62.42881331010470    2.48614360992244   -0.75941582087403
C        63.44331348070868    3.36807500933728   -1.00017411861673
C        64.67408808594534    2.69206873366769   -0.76980675202362
N        64.36548436896247    1.42054802814648   -0.39448265425131
C        65.94396782012119    3.23505609342444   -0.91065342604348
C        67.16970574794875    2.61770869867629   -0.71978579310832
C        68.43016168068500    3.31306260594932   -0.91935751865276
C        69.40222648649488    2.41683451194567   -0.66001519485922
C        68.72387107062940    1.18435818062888   -0.30348185525384
N        67.38939314645516    1.33360090190754   -0.34808998853736
C        69.40080451584672   -0.00736205682265    0.02134690501478
C        68.75051733484449   -1.21194690941274    0.33429367390472
C        69.34216635516923   -2.45090778673091    0.69486438416810
C        68.32828123828288   -3.33497737603488    0.93014874799806
C        67.09674509779079   -2.65310130335102    0.72201886935130
N        67.40431218790494   -1.37685462881583    0.36173927203704
C        65.82686572330429   -3.19131735759146    0.87742664618143
C        64.60134075762157   -2.56635401369982    0.71003993325314
N        64.38117443208488   -1.28374952132127    0.33391704373133
H        63.25178481154730   -4.27689354835146    1.24971689933210
H        61.30562259738291   -2.46704921615930    0.76632461848245
H        61.37427960050208    2.65817557119615   -0.85026073072505
H        63.35743617217074    4.39082634903668   -1.31194843981997
H        65.01691551875017    0.67788237960768   -0.16505030122388
H        65.97777370849865    4.27262714546218   -1.21466010140860
H        68.52064920495583    4.33951569375830   -1.21902852804460
H        70.46711471331069    2.53604911654352   -0.70960597155197
H        70.39732305269681   -2.62589377970894    0.77279989663924
H        68.41511736301584   -4.36273822136732    1.22470578383955
H        66.75193569124252   -0.63063265828788    0.14716144143782
H        65.79228460553492   -4.23032894309401    1.17632609743266
C        74.40267092741105   -3.26442572264365   -0.96542677152575
C        73.42500076718534   -2.38051236230420   -0.68546999039268
C        74.09550218072282   -1.14918036450238   -0.31173357942840
C        73.41281312659373    0.03345462176187    0.03353810657477
C        74.06095796302074    1.23206544675596    0.37322965685090
C        73.46975114987390    2.46207499087994    0.76312239004006
C        74.48457893721424    3.33879390824400    1.02163198987257
C        75.71574151715562    2.66111711720762    0.79811848440764
N        75.40739086451809    1.39480278667653    0.40574298254008
C        76.98546580172857    3.19509823415149    0.97103885029728
C        78.21340203435528    2.57933809344157    0.79027307717038
C        79.46822586093539    3.26455199292913    1.04918551678889
C        80.44588410086233    2.37867370626595    0.77615527094977
C        79.77820898958664    1.16516207513571    0.34546288604377
N        78.44283279413706    1.31105330008352    0.37173694444555
C        80.46457485192794   -0.00148709846300   -0.04913816297407
C        79.81348409463760   -1.18524705777094   -0.43677910807194
C        80.39945599969859   -2.39730427562605   -0.88475547171928
C        79.38377707766618   -3.27453823462605   -1.13744359793785
C        78.15572356475387   -2.61401925550106   -0.85483457641139
N        78.46744038912368   -1.35565032505739   -0.43930715636722
C        76.88717764181079   -3.16245114503792   -0.98658924400093
C        75.65873440663466   -2.56196144586799   -0.76286488711272
N        75.43099853682851   -1.28736730469459   -0.36500153655844
H        74.31865555396897   -4.28649479783905   -1.28147894247375
H        72.36087304659026   -2.50761452623208   -0.73079654650009
H        72.41464639551317    2.63604343254331    0.84437047588873
H        74.39840422304940    4.35892124432317    1.34184399873498
H        76.05581776987037    0.65032700889167    0.17226283937454
H        77.01743988721499    4.22553210515484    1.29884224309243
H        79.55158871849513    4.27696285998667    1.39502431664060
H        81.50833232918438    2.49287592067199    0.86245075714313
H        81.45155120042587   -2.56048857511072   -1.00921803760727
H        79.46727462195078   -4.28384322453961   -1.49087540570847
H        77.82153721249136   -0.62160757964960   -0.16850368824563
H        76.85680824596425   -4.19190147294778   -1.31765869371954
C        85.47768798761273   -3.39414146529655   -0.02671270263378
C        84.49819805888266   -2.46936297163490    0.00069738318981
C        85.16317469621430   -1.18069750510547   -0.02875597454343
C        84.47564708844050    0.05018106885308   -0.03945639993491
C        85.12752762756394    1.29545223469992   -0.03650462302418
C        84.54314095136085    2.58773844797718   -0.07249436390798
C        85.55983597843590    3.49851970120637   -0.02781564407118
C        86.78687663116422    2.78075371235650    0.02912416896935
N        86.47371713963554    1.45602962874285    0.01471642638245
C        88.05529309246043    3.34070237063311    0.10105725586352
C        89.28340312587410    2.70047370109150    0.13399274580750
C        90.53546112658067    3.43023736172967    0.23957905171700
C        91.51485963264396    2.50505714029098    0.22389918816500
C        90.85076795130335    1.22139183274077    0.10125013125599
N        89.51581860858381    1.36754264712568    0.06203616987722
C        91.53839946763840   -0.00695788810354    0.02655756617750
C        90.88795019260365   -1.24982773087704   -0.05863175005045
C        91.47461096123749   -2.53753922017942   -0.16199613669639
C        90.45787316016904   -3.44875135706941   -0.19744925362124
C        89.22908419857515   -2.73543482224310   -0.12282551487456
N        89.54116283180075   -1.41263397559194   -0.04678198932955
C        87.95964494303531   -3.29758878322365   -0.11373746027555
C        86.73086023274097   -2.65965942842306   -0.06344938688049
N        86.49873904565429   -1.32469857092960   -0.05435006283872
H        85.39664765321598   -4.46415501250017   -0.01830030737934
H        83.43624751648120   -2.60722350659705    0.05234440115913
H        83.49137172931991    2.78374634456758   -0.13798474755301
H        85.47726403939761    4.56795534532080   -0.03643590130034
H        87.11847768688169    0.67278511556561    0.03369215656658
H        88.08543725176995    4.42158587164764    0.13532029347997
H        90.61583671044133    4.49744226009790    0.31793564483548
H        92.57588082540806    2.63866431529687    0.30155930082479
H        92.52805958205691   -2.72905475860737   -0.21482995165503
H        90.54155377083573   -4.51558288648465   -0.27135300399210
H        88.89583955914871   -0.63145833391217    0.00693636748198
H        87.92911754430348   -4.37840184934219   -0.15009048401764
C        96.54127014470036   -3.24631882387627    1.08706524275431
C        95.56375238413652   -2.35433576883037    0.83352498267871
C        96.23245023690954   -1.13044684479170    0.43499237960642
C        95.54882808205554    0.04597664829496    0.06627072598755
C        96.20347421933612    1.23924529957269   -0.28391142542394
C        95.62210860368683    2.46906941796817   -0.68711918028016
C        96.64155208873730    3.35124856476208   -0.90545036107861
C        97.86695314121727    2.67588009040277   -0.64702159422972
N        97.55019526770307    1.40365675040888   -0.28092436917810
C        99.13683894457422    3.22873309622342   -0.74303171634195
C       100.36389243046540    2.62113419674121   -0.53182870224925
C       101.61808161769717    3.34532556495615   -0.64965716990814
C       102.59563530699769    2.45144867235208   -0.40279063192512
C       101.92808907819851    1.19019390358582   -0.14299331885941
N       100.59313882727520    1.32386925422692   -0.21518038067492
C       102.61227625711523   -0.00922430288880    0.14039835137272
C       101.95843008072889   -1.21816242176955    0.43314797639083
C       102.54096104549230   -2.48029406553545    0.71717377059112
C       101.52140754198773   -3.35609873909537    0.95940829492485
C       100.29491014535292   -2.64837089816193    0.82039407219971
N       100.61111542487627   -1.36431890368480    0.49804863650183
C        99.02416150984050   -3.18016982776849    0.99370524861743
C        97.79659521309276   -2.55517905034014    0.84638596838554
N        97.56776254816256   -1.27611353087074    0.46228011339678
H        96.45763001574902   -4.26698131007170    1.40771184634491
H        94.50091682664646   -2.47136180515600    0.91344783912857
H        94.57050873124780    2.64132193400414   -0.80390954107597
H        96.56217052416734    4.37386685009010   -1.21936586567439
H        98.19063063119970    0.65481332934495   -0.03824311682128
H        99.16936660150954    4.27338032231096   -1.02242678047739
H       101.70115632248248    4.38913033376285   -0.88449276122182
H       103.65744291603339    2.59798673763455   -0.37312849327469
H       103.59353413944142   -2.68334992061748    0.72084312713228
H       101.60150203884008   -4.39652697381447    1.20778524556315
H        99.97004149135361   -0.59838370870500    0.31870427630355
H        98.99149415771382   -4.22301511866342    1.27970706168138
C       107.62863142262545   -2.81996146565194    2.02864749006447
C       106.64899530165833   -2.03588212752036    1.53803697782768
C       107.31291538955753   -0.99546221742883    0.77558481698131
C       106.62310888079801    0.02384480321478    0.08861935851184
C       107.26655353342954    1.05116970991322   -0.62210429772451
C       106.66941868263477    2.09936023495922   -1.36951640060491
C       107.67858105416360    2.86287265241460   -1.88281743667822
C       108.91335841505582    2.29315852917541   -1.46439059795137
N       108.61205208905251    1.20172946454873   -0.70836563848255
C       110.17931711012672    2.76768485002572   -1.77883904872984
C       111.41031946503190    2.23875639849103   -1.42508148660212
C       112.66433985339307    2.84124349470105   -1.84510634756034
C       113.64430564621473    2.06358889331646   -1.34474982351244
C       112.97723474767940    0.99609271951743   -0.62271017142072
N       111.64125876517447    1.12668686981719   -0.68728322270260
C       113.66335892511276   -0.04397600312964    0.03341993742731
C       113.02134794962389   -1.09557692816253    0.70673469533597
C       113.62078757372099   -2.17180643318661    1.41194582679836
C       112.61207758158808   -2.93709170128024    1.92368535625260
C       111.37632024349730   -2.34160236113846    1.54521487864416
N       111.67585994622173   -1.23636122008218    0.80949070081301
C       110.11031810236699   -2.79758510703652    1.88645344219120
C       108.88057619189105   -2.24551405057888    1.56609123616890
N       108.64786004022625   -1.14094726817520    0.81643193911552
H       107.54858410458992   -3.69545088039289    2.64400406485203
H       105.58786077690849   -2.11201147681035    1.67171324358560
H       105.61413643008930    2.23294885718322   -1.50282697777979
H       107.58621624823306    3.73693734550380   -2.49768249340376
H       109.26658761904439    0.56613583915549   -0.26516086373374
H       110.20521944696526    3.66252512731205   -2.38610116890437
H       112.74554746180679    3.73021574698550   -2.44067936679372
H       114.70763414101594    2.16145586272956   -1.44648003682056
H       114.67736653326325   -2.32217336497968    1.51727263931858
H       112.70521819133836   -3.82878554116044    2.51258564110336
H       111.02019434249591   -0.58464331469456    0.39220136262036
H       110.08374083837791   -3.69565306596807    2.48887940465043
