228
 energy: -385.992216116036 gnorm: 0.000397489022 xtb: 6.4.1 (bd6e46d)
C        48.25852465950200    3.40957242820080    0.55013788500629
C        49.23130865518144    2.48750873093123    0.41402817149321
C        48.55554483344510    1.22732546701807    0.16167113058021
C        49.23981669839113    0.01186032506753   -0.03152601493430
C        48.61199832942413   -1.22527823128185   -0.24535557144594
C        49.23738730521858   -2.48167362996140   -0.46671853284961
C        48.24974284959958   -3.40850565727170   -0.63588566892520
C        46.99917662026460   -2.73753366139520   -0.52686747881070
N        47.27071718292414   -1.42417080501072   -0.29080471738631
C        45.74142854276453   -3.30991802935536   -0.64663909608462
C        44.51288482237223   -2.66922227661762   -0.56546510028572
C        43.24757844811744   -3.37391700789154   -0.71423273484921
C        42.28248203996967   -2.44499954562308   -0.58435051602490
C        42.96565597207263   -1.18072588696378   -0.35766772085774
N        44.30425869927375   -1.35359052248305   -0.35200211068978
C        42.29887899603980    0.02432742447296   -0.17574882032548
C        42.90306853310530    1.25312338339896    0.04103417762710
C        42.27543121220070    2.51620629883000    0.23966544279744
C        43.25951851761243    3.44296172119250    0.41773981664285
C        44.51364437163542    2.77087832480532    0.33182892363625
N        44.24583408811804    1.45810116754524    0.10406745978342
C        45.77140957171806    3.34073810257867    0.46047082432893
C        47.00034229383307    2.70225718189730    0.38227654526679
N        47.22126522173836    1.38598503007447    0.15215740139996
H        48.34697382613251    4.46083950718505    0.74664594850649
H        50.29482992583610    2.60714219136459    0.48603609085666
H        50.29760123927120   -2.63916526329752   -0.50163666168050
H        48.36576376711213   -4.45827999369522   -0.82312082813321
H        46.58470344588867   -0.68782584614435   -0.17187584019465
H        45.71873499342955   -4.37541314044479   -0.82930220411083
H        43.15363113892086   -4.42819522560409   -0.89198367871651
H        41.21684324461005   -2.56334241674353   -0.63140435317778
H        41.21906144243771    0.00249772652845   -0.20473884019856
H        41.21506013143305    2.67834674177686    0.24424522927917
H        43.14242060369024    4.49489106348711    0.59297821700521
H        44.92987656066140    0.71933547965254   -0.00655291331334
H        45.79580453570879    4.40581973413817    0.64588921239075
C        98.43154416785606   -3.40641646606567   -0.49363416730526
C        97.45868218579240   -2.48479175672737   -0.35499743760825
C        98.13572710091266   -1.21396761719721   -0.16731983253358
C        97.45201495184311    0.00499012609758    0.00218468149443
C        98.07889014107552    1.25097935201632    0.15908523576685
C        97.45248882625793    2.51116352109655    0.35499794530172
C        98.43929790860371    3.44675899184471    0.47307287222989
C        99.69030620692351    2.77791668072359    0.35605252005820
N        99.41988540901983    1.45678527175062    0.16705537382383
C       100.94779074516229    3.35880385032130    0.42805455637024
C       102.17669008206862    2.72100528465357    0.33109675897191
C       103.44236150121776    3.43435861225437    0.42513970816692
C       104.40770756729331    2.50643112160307    0.29010422359562
C       103.72428753561663    1.23403439647049    0.11543466381431
N       102.38531840909886    1.40112228639024    0.14545624781927
C       104.39137005161402    0.02780675860102   -0.05745871101112
C       103.78764976160315   -1.20889525556281   -0.22485956766266
C       104.41628790430859   -2.47337246386731   -0.41125937740669
C       103.43268981529336   -3.40965277817538   -0.53321255131897
C       102.17785728306502   -2.74229152505118   -0.42371437125438
N       102.44479844611436   -1.42253370720894   -0.23939093350120
C       100.92020570501640   -3.32255422110722   -0.49337780986188
C        99.69076153187119   -2.68838887424647   -0.39123784198810
N        99.47048604649108   -1.36654921887109   -0.19550848564657
H        98.34242651234122   -4.46396994926942   -0.65254379794254
H        96.39390349493431   -2.61148790243140   -0.38540811990538
H        96.39249838576988    2.66529415080237    0.40835520833073
H        98.32258209665352    4.50139515168743    0.63012137969840
H       100.10598737994262    0.71949825434447    0.05472730234756
H       100.97002404171388    4.42905149920970    0.58038231511847
H       103.53638988982762    4.49317287961986    0.57347364287040
H       105.47368360405879    2.63029475574184    0.30253581800991
H       105.47144193470311    0.05533856820422   -0.06264952283067
H       105.47693532793254   -2.62992622290034   -0.44601302356765
H       103.55046964082622   -4.46514385412679   -0.68500151177497
H       101.76036030060699   -0.68447277047790   -0.12666772679914
H       100.89627775168015   -4.39255038810714   -0.64791400985828
C        50.64049513749988    0.03200839886196   -0.01365609405615
C        51.85367923818021    0.05422211250994   -0.00280016963681
C        61.67822366172410    0.03257482280571   -0.02250573503881
C        62.89189174264993    0.04846063968775   -0.03168017849297
C        72.72809201443958   -0.01079908852895    0.00961365809281
C        73.94221078901155    0.00956572208723    0.02595941741850
C        83.78710275757899   -0.04194294283332    0.11390763733003
C        85.00153411232017   -0.02424819120758    0.10136905026745
C        94.83820017607823   -0.04354112536427    0.02858571239825
C        96.05120174337885   -0.01911374314228    0.01488273630301
C        54.23920331431594   -3.14090495141535    1.25174623503106
C        53.26341898264941   -2.27207532726818    0.92264842030253
C        53.93607032493136   -1.08083678125798    0.43818946758077
C        53.25352729352068    0.07157021086441    0.00313658006376
C        53.89679903144435    1.24195679487998   -0.43040390480815
C        53.29738087685072    2.43923840752435   -0.90200259141067
C        54.30566504674194    3.30189175316705   -1.22463237052623
C        55.54148136352999    2.64756019672788   -0.96146499148071
N        55.24218805980838    1.40908328292509   -0.48235313459765
C        56.80826257536791    3.17534229365247   -1.17021309503799
C        58.03648937996677    2.57212949532642   -0.95220222625465
C        59.29353780516789    3.24228490982766   -1.23949935621209
C        60.26911610700060    2.36933402363907   -0.92092262376176
C        59.59641617935437    1.17704673414173   -0.43916709119110
N        58.26154778470618    1.32563402162994   -0.47155117455183
C        60.27913914796790    0.02168161710017   -0.01140414704658
C        59.63583566182330   -1.14557358536206    0.43110277982280
C        60.23549644908805   -2.33985431748853    0.90982347692433
C        59.22729064561849   -3.19842838205152    1.24344418641422
C        57.99134999900206   -2.54496827560105    0.97859564233050
N        58.29059665036094   -1.31027935665456    0.48940719381809
C        56.72465681893157   -3.07110101036356    1.19090430175492
C        55.49630014202130   -2.47017678808260    0.96607746170297
N        55.27135071688491   -1.22679470948789    0.47804103648020
H        54.15340762070471   -4.13360371626442    1.65019860420435
H        52.19955449316286   -2.38386030453397    1.00175606568823
H        52.24109920946959    2.60222890373074   -0.98953279488917
H        54.21213802283440    4.29745026765462   -1.61282883479613
H        55.90016025501626    0.68929415535809   -0.20431178875600
H        56.83722249891770    4.18371171457922   -1.56055730347797
H        59.37942110777750    4.23713386014369   -1.63252966594943
H        61.33282682721708    2.47935333181776   -1.00417205177171
H        61.29192490906347   -2.50299394507770    0.99545888903296
H        59.32087258149799   -4.19068811103062    1.64000913946245
H        57.63296509928637   -0.59103921147936    0.20913738621922
H        56.69544896272126   -4.07685864463686    1.58791627170238
C        65.26801252596488   -3.34256982726187   -0.61327313962704
C        64.29419597228052   -2.42430090761571   -0.45869468699990
C        64.96989029134610   -1.16073964745893   -0.22951731876370
C        64.29084936816484    0.05818359411262   -0.03638887793504
C        64.94043320575874    1.28821757734369    0.15682651080442
C        64.34932744463924    2.55841090072888    0.38427999189495
C        65.36397322675653    3.45897198417117    0.54155332203591
C        66.59505048641033    2.75633231999152    0.41773131593643
N        66.28692093391571    1.45162218950746    0.18211015849801
C        67.86482459953844    3.30420731613378    0.53829961030069
C        69.09053637389457    2.66409840038352    0.45273279040556
C        70.34775528610542    3.36859298616373    0.63787571370496
C        71.32135131786723    2.44845026191292    0.49427964324013
C        70.64818566321702    1.19362732503799    0.21650034316892
N        69.31407143301290    1.35082197240902    0.20461322579047
C        71.32980228282085   -0.02000183283669   -0.00497229972425
C        70.67928016208296   -1.24310460042601   -0.23943846482705
C        71.26855017282611   -2.50705934101335   -0.50214158474752
C        70.25350110054295   -3.40662553441304   -0.66221698556946
C        69.02324029063385   -2.70932460410870   -0.50577436274783
N        69.33273311719931   -1.40764044364425   -0.25460013960560
C        67.75345388525005   -3.26280544187242   -0.59742230676970
C        66.52694337949667   -2.62926562796115   -0.47887723676744
N        66.30467330065549   -1.31310532907659   -0.24734150407478
H        65.17970853847739   -4.39528468227890   -0.80174170769292
H        63.22979342997240   -2.54873635114189   -0.50442701266982
H        63.29417846316398    2.74354307116404    0.43229715278344
H        65.27772063301985    4.51127754774244    0.73088211904086
H        66.93694905115643    0.68386132008316    0.05221636641605
H        67.89844455374380    4.36737245760188    0.73505608517468
H        70.43507562235203    4.41656287342338    0.85154462687267
H        72.38381453554129    2.56605832646047    0.57840054985054
H        72.32276252928990   -2.68944449533557   -0.57157691654703
H        70.33905537239154   -4.45493961865638   -0.87274423400558
H        68.68319003031294   -0.64349010291583   -0.10282111260652
H        67.72031996507003   -4.32607955278397   -0.79369214592783
C        76.31882318008995   -3.35363639323365    0.76370281318416
C        75.34529795396853   -2.43753965144566    0.59508807661905
C        76.01971647809984   -1.18543099283427    0.30867749101530
C        75.34026674460077    0.02135409369100    0.04723952974164
C        75.99485460663952    1.24143762357690   -0.19212215654063
C        75.41158066637382    2.50122784448908   -0.48578319761582
C        76.42913299822318    3.40245070219609   -0.61875531963284
C        77.65512491680941    2.70970827631180   -0.41617415095941
N        77.34086288402905    1.40854045050989   -0.16863308821044
C        78.92509877880174    3.26933187560256   -0.45097751425028
C        80.14924137278123    2.64102242525487   -0.28964195896402
C        81.40555187594131    3.37001518343533   -0.32408020443392
C        82.37909431122289    2.45291445019188   -0.16147113529532
C        81.70721897761941    1.17341199439326   -0.03662098547639
N        80.37318709056944    1.31764722805623   -0.10306533751111
C        82.38884795614842   -0.05044702377352    0.12160313151866
C        81.73431661081321   -1.28305911533855    0.28643465182106
C        82.31791116991248   -2.56755417054392    0.43695909200083
C        81.29994372252054   -3.46423429930222    0.59454816054389
C        80.07303876015756   -2.74654585293770    0.53508225340260
N        80.38747121903901   -1.43619424070496    0.34205490111531
C        78.80235865852556   -3.29074626498872    0.66403930138063
C        77.57702057185809   -2.64936348852686    0.58393272956537
N        77.35424884788634   -1.33906348091845    0.32059788726007
H        76.23070253944870   -4.39889248508396    0.99004801987164
H        74.28190163371700   -2.55606816527381    0.66626700385173
H        74.35987450628208    2.68022922699452   -0.59171264623865
H        76.34786496561995    4.44887031281264   -0.84009373296852
H        77.98664680104976    0.64621083302494    0.00698137029965
H        78.96050894415288    4.33569771131412   -0.62948687411729
H        81.49246967580090    4.43203086301495   -0.45103728969728
H        83.44070744425457    2.59285888054281   -0.10780709218378
H        83.37038456994803   -2.76941654659134    0.41350907612005
H        81.38154025845365   -4.52447485777986    0.73528293971637
H        79.74153295330662   -0.66008864407109    0.24445186171143
H        78.76764144036862   -4.35619661992392    0.84803923373259
C        87.40646977010218   -3.08190088759306    1.64270571489394
C        86.42659097585855   -2.24185751066484    1.25632670225257
C        87.09016216363926   -1.10935229977028    0.63866473776275
C        86.39987958145598   -0.01071032779714    0.08780795078599
C        87.04331911334829    1.10324587370733   -0.47796147531288
C        86.44597448958255    2.23952032897758   -1.08278543004376
C        87.45432933301048    3.07010681941805   -1.48034413862179
C        88.68908347268051    2.45471763005174   -1.13293474992284
N        88.38852280787627    1.26975004782626   -0.53360492256567
C        89.95452338950018    2.97255157487522   -1.37189923943356
C        91.18556609566784    2.40269107043093   -1.08936555801842
C        92.43964240121178    3.05868919999680   -1.41920847007648
C        93.41948869008974    2.21977443617081   -1.02994432735577
C        92.75211648376138    1.06204099358535   -0.46393984859533
N        91.41618828291151    1.19945441766904   -0.51192970823390
C        93.43841042001718   -0.05834953240463    0.04256932343832
C        92.79760684887927   -1.19287161446011    0.56517869353678
C        93.39821406598836   -2.35468797091828    1.11697228681814
C        92.39029528051194   -3.18206692804662    1.52270254672667
C        91.15394207559794   -2.54106319780217    1.23026761463298
N        91.45230208027806   -1.34661910034322    0.64990260848415
C        89.88821001946080   -3.03863941266018    1.50841686710203
C        88.65834111662689   -2.44980740171451    1.26263109551804
N        88.42531228467377   -1.25657637234070    0.66414822135829
H        87.32657064999664   -4.03070369438889    2.13762258988003
H        85.36538535646685   -2.33663671737554    1.37614239971797
H        85.39116635515370    2.38462046468976   -1.20653507091809
H        87.36148630383596    4.01863545207216   -1.97251231494252
H        89.04422533471495    0.58425165803671   -0.17459923423495
H        89.97986673862327    3.94251691501869   -1.85008657453506
H        92.52100715781906    4.02165038460329   -1.88575284945062
H        94.48289660568459    2.33144706975573   -1.11540520535732
H        94.45502391666194   -2.51805615930187    1.19826134071884
H        92.48439230147868   -4.14509701300895    1.98565556046305
H        90.79555954192453   -0.64520618559384    0.32526373325655
H        89.86183477025192   -4.00867635842881    1.98641347520712
