259
 energy: -471.577858750288 gnorm: 0.000479404757 xtb: 6.4.1 (bd6e46d)
Cu       51.03305200710533    0.03359183531027   -0.01147778782621
C        53.52108959052225   -1.54011183504027    3.06171318423216
C        54.48408901707254   -1.08386156749749    2.22626201718617
C        53.81098366515396   -0.52472484884958    1.08907266159645
C        54.47196921572181    0.04527234060528   -0.00767498293804
C        53.80959881216697    0.61450538942461   -1.10394713616096
C        54.48114882955768    1.18024839771702   -2.23875582284623
C        53.51683621622849    1.63442878492428   -3.07379758740946
C        52.25812159879666    1.33923573380323   -2.45093229833068
N        52.46940690651105    0.71687667803580   -1.25955401245135
C        51.02904038976252    1.65175608812435   -3.00375849857393
C        49.80150831510620    1.35692096157693   -2.43834532746065
C        48.53621437837865    1.68600802153987   -3.03635042380430
C        47.57852387397042    1.22450765344155   -2.20011950935831
C        48.25757479252968    0.61303585290810   -1.09005152071933
N        49.59995802193508    0.71169062131311   -1.26151824543979
C        47.61687448045384    0.01393949197944   -0.01974005665456
C        48.25946350397909   -0.57494349995037    1.05509510903005
C        47.58224752894806   -1.19058813028319    2.16401600135224
C        48.54115543517042   -1.63592164796250    3.00756167010026
C        49.80540964264527   -1.29391993408884    2.41459097061881
N        49.60208436391502   -0.65613174134654    1.23400851611169
C        51.03344145913882   -1.57427975009615    2.98629695693024
C        52.26167719476807   -1.25394105688253    2.43609587273200
N        52.47124187194536   -0.63368190371762    1.24329647095973
H        53.63390443005837   -2.02244176216562    4.01333467227196
H        55.54860884157586   -1.10096456977329    2.35557002194344
H        55.54570924362648    1.20367523825128   -2.36663284642246
H        53.62825935282422    2.12001805757051   -4.02391371333319
H        51.02914013008755    2.16183400955201   -3.95629012280970
H        48.42034264626571    2.20064892333795   -3.97073923403441
H        46.51211411263209    1.28039300821316   -2.30476890064199
H        46.53664393953949    0.00656439722220   -0.02283759172589
H        46.51607881305141   -1.25966687470975    2.26309897873217
H        48.42684748423154   -2.14764023676516    3.94374107954566
H        51.03451049252334   -2.08099940827310    3.94059845922713
Cu      116.49994025313595    0.03495076719874   -0.01344963552300
C       114.01470167085972    2.00179387033288    2.82657463557458
C       113.05089991946562    1.44382064939728    2.05634178783829
C       113.72293296508055    0.74075005979923    1.00144572203797
C       113.06094114442509    0.03633432212550   -0.01359850994644
C       113.72259693193537   -0.66871013202340   -1.02845003174851
C       113.05018680917794   -1.37139420773813   -2.08332628567216
C       114.01363739207355   -1.92958201673719   -2.85381102137991
C       115.27272068773206   -1.56146762416327   -2.27203824576412
N       115.06258051261861   -0.79334530436228   -1.16875150227588
C       116.50117631948214   -1.94431761413027   -2.78018453488271
C       117.72904626682235   -1.58608922655468   -2.25356718465784
C       118.99370525988131   -1.99289798247929   -2.80306349005623
C       119.95217204616793   -1.43784483929736   -2.02676509415649
C       119.27417942435844   -0.69070742764838   -1.00235531199530
N       117.93163896310163   -0.80182513706547   -1.16459952718431
C       119.91611970483673    0.03215349323302   -0.01223313745248
C       119.27455698427740    0.75686430320853    0.97676813314935
C       119.95299966661297    1.50483832157819    2.00027508310297
C       118.99487648783511    2.06285095457013    2.77486990191788
C       117.72993587728641    1.65658317939784    2.22555660637811
N       117.93204587622833    0.87024083372167    1.13798965764213
C       116.50235656857551    2.01618166127204    2.75197457110249
C       115.27359181179575    1.63318296039757    2.24464057041609
N       115.06298217632096    0.86481620817813    1.14162495116760
H       113.90275347969046    2.60334910570390    3.70779503054557
H       111.98639937547617    1.48039051352030    2.18148763081176
H       111.98570102053341   -1.40742499866652   -2.20844720312776
H       113.90132531579265   -2.53112434220166   -3.73498539182599
H       116.50019600850091   -2.56917732410562   -3.66166902255233
H       119.10852851727432   -2.61870061203885   -3.66708567119156
H       121.01847392156712   -1.51210013794522   -2.12047101354783
H       120.99635731699750    0.03105091696588   -0.01164595240549
H       121.01935833140516    1.57776205751310    2.09441403459731
H       119.11010127641630    2.69042857320030    3.63755792487735
H       116.50196652536238    2.64207345417954    3.63273120674975
C        55.87435650814154    0.04464807350454   -0.00840235408370
C        57.08733094572839    0.04530735543226   -0.01015925636802
C        66.78594124319248    0.02399537392785   -0.02194868406281
C        67.99964476718183    0.02944096808503   -0.02168753838112
C        77.70143140089918    0.05256305777851   -0.02135513522268
C        78.91530585652457    0.05239748126837   -0.02368254221875
C        88.61622437857388    0.04982026968908   -0.02887070823559
C        89.83017205081642    0.04539756835608   -0.02920963946548
C        99.53279224739317    0.03661312261368   -0.02341299194556
C       100.74654535968639    0.03670387429297   -0.02000644515762
C       110.44562498161696    0.03784329080041   -0.01708209123154
C       111.65864107612481    0.03717821332052   -0.01408009858654
Cu       61.93613303256797    0.03341877975727   -0.01646237160725
C        59.44652791531406   -2.82314637734010    1.91630612947132
C        58.48141925227176   -2.05436729541237    1.35813807711760
C        59.15141334009186   -0.98505837791556    0.67538906708313
C        58.48913755403292    0.04279158612839   -0.01059571682485
C        59.15449712053500    1.06722509718573   -0.69870982631655
C        58.48760761316957    2.13922407221992   -1.38032363471349
C        59.45469287322381    2.90218156037333   -1.94308433988418
C        60.70971144388819    2.29804078049356   -1.59846153498915
N        60.49417923606563    1.19250264204940   -0.83518392450963
C        61.93968481509260    2.77611777953500   -2.01249130301927
C        63.16767284223709    2.23081377046092   -1.68429465903831
C        64.42341613538905    2.73833491608692   -2.15731561374604
C        65.38837807083559    1.96376141103195   -1.60692718991760
C        64.72020159476872    0.99102639368724   -0.79143409593229
N        63.38096050198952    1.16450492545766   -0.86616563294200
C        65.38475716038096    0.02451230393984   -0.02189086347566
C        64.71843168994735   -0.94007950793156    0.74829705057197
C        65.38406383021032   -1.91694845495043    1.56091814168613
C        64.41678055773784   -2.68688284938663    2.11378080670295
C        63.16218168722411   -2.17241423083003    1.64510817439903
N        63.37849896300397   -1.10692435487460    0.82683273583945
C        61.93215129251829   -2.71093496978688    1.97694679941616
C        60.70348731954975   -2.22517690083452    1.56789163503536
N        60.49104205159092   -1.11731835240406    0.80712438033462
H        59.33637569758844   -3.71276697164834    2.50571767635516
H        57.41760521653677   -2.18818326761391    1.38342537725889
H        57.42441369390346    2.27861113279096   -1.40166727074666
H        59.34703718961038    3.79139155766690   -2.53358174457902
H        61.94158224368476    3.65020157697958   -2.64800906026819
H        64.53296722775161    3.57211520874730   -2.82345727183886
H        66.45092704957273    2.02003603309579   -1.73928553092466
H        66.44678271586726   -1.97938629066443    1.68939730293096
H        64.52406639564633   -3.52151585421160    2.77924782045880
H        61.93101433342304   -3.58573690261440    2.61147941556876
Cu       72.85043449114860    0.04137767506699   -0.02022552243528
C        70.37621939090543   -3.29398882272705    0.89105025526004
C        69.40737062746346   -2.39671741206863    0.59016987719938
C        70.06970234789519   -1.15908824188559    0.29533166412306
C        69.40070155245851    0.03242047217405   -0.02179263708845
C        70.06397540303860    1.22740021741108   -0.33819408412433
C        69.39552635436345    2.46183145521457   -0.63273231146167
C        70.35996986659285    3.36425691060203   -0.93238778512509
C        71.61560727725232    2.68104071055981   -0.81165310339754
N        71.40303263110104    1.39000198526240   -0.43756674113428
C        72.84264554270000    3.26426503589672   -1.07078443972444
C        74.07257874561820    2.64561501269249   -0.93873479768925
C        75.32488138941251    3.27387958430690   -1.24678323163387
C        76.29355800699122    2.37168145768068   -0.96045330021375
C        75.63128047560039    1.19835244902616   -0.46873161788091
N        74.29147824627394    1.38283146862547   -0.48100956379203
C        76.30058533138954    0.05005672319753   -0.01943673090289
C        75.63679239863777   -1.10106790585202    0.43084371190763
C        76.30461014248529   -2.27061017455277    0.92412450574642
C        75.34027744210012   -3.17757054385793    1.21008365771069
C        74.08509112658496   -2.55604532072303    0.90015710306680
N        74.29792447302515   -1.29232309589959    0.44212907034730
C        72.85830077240411   -3.18120660981560    1.03070792670088
C        71.62845055140608   -2.60448997239524    0.77037547394382
N        71.40952723950798   -1.31482534908611    0.39529937293937
H        70.27138697830479   -4.32573022477412    1.16579354605589
H        68.34572577566125   -2.54252208606134    0.55227114901982
H        68.33319449188585    2.60260018069498   -0.59505961763238
H        70.25006826715382    4.39574596223198   -1.20607265512848
H        72.84015031147564    4.29183829082089   -1.40548237502396
H        75.42995684782369    4.26912940718294   -1.63328587116451
H        77.35508316142027    2.46720593827307   -1.07720316969768
H        77.36645348156431   -2.36030761593759    1.04260404745247
H        75.45008129565146   -4.17194945880690    1.59750621727671
H        72.86090230458262   -4.20876661151995    1.36545894948872
Cu       83.76561882888666    0.05179651236868   -0.02675315459892
C        81.28322510690307   -3.39937231926306   -0.03488240894144
C        80.31709064411984   -2.45173087864533   -0.08848877588379
C        80.98247741418102   -1.18204309014846   -0.04052180294350
C        80.31615795709837    0.05255341006647   -0.02575272737635
C        80.98281302178344    1.28696251480181   -0.01274479366188
C        80.31794624433448    2.55697389942745    0.03306456220861
C        81.28447325152432    3.50417082312259   -0.02105739484360
C        82.53804356387879    2.81019919991686   -0.08982770467819
N        82.32209834094587    1.46666807895945   -0.06971997672010
C        83.76640378945766    3.43777285998895   -0.19035301164495
C        84.99430399118481    2.80255992253151   -0.23073904739923
C        86.24799751985179    3.48599043332310   -0.36806051064382
C        87.21404304555607    2.53744897770902   -0.33205571265981
C        86.54891516399810    1.27817471802622   -0.16231213237476
N        85.20974352542365    1.46322657681900   -0.12129951326851
C        87.21537694397850    0.05079420107833   -0.02846706364653
C        86.54833596493259   -1.17612581446826    0.10722752402969
C        87.21285932090781   -2.43531622767915    0.27987512566104
C        86.24635272096934   -3.38328291762179    0.31834860775524
C        84.99302886292863   -2.69957612324568    0.17923471022508
N        85.20910131496970   -1.36056918269228    0.06698088437271
C        83.76487279872929   -3.33420947837840    0.13830191784569
C        82.53700007516998   -2.70600318470844    0.03582185375438
N        82.32166563721321   -1.36232640098597    0.01672575441811
H        81.17549188380751   -4.46672117104156   -0.04565002976255
H        79.25549772831656   -2.57950097989782   -0.16778771273264
H        79.25633579522712    2.68528688165488    0.11104915919442
H        81.17707261543765    4.57156830097531   -0.01217806415341
H        83.76680136357466    4.51723821059839   -0.24217702469805
H        86.35577208772359    4.54748500920942   -0.48015038832502
H        88.27545701792091    2.65711925613781   -0.42453734320962
H        88.27421084950669   -2.55519651319933    0.37259340908665
H        86.35364738672692   -4.44449207411112    0.43353296979769
H        83.76462737276049   -4.41362042327624    0.19118135077749
Cu       94.68164683813529    0.04044198565930   -0.02433655055815
C        92.19713045168537   -3.30143698977363   -0.88177046603455
C        91.23131930022220   -2.36909473714890   -0.70224253908902
C        91.89686063140144   -1.14984187559514   -0.34524039375301
C        91.23101584347998    0.04388108920844   -0.02857348814559
C        91.89879188322884    1.23587969773941    0.29070952875295
C        91.23488341984245    2.45563070897901    0.64901115681114
C        92.20217012134523    3.38549972173585    0.83323645662462
C        93.45534535324883    2.72865184723793    0.59700313550345
N        93.23833380652002    1.42241233899571    0.28276928868417
C        94.68427402448430    3.36007843766714    0.65935962721175
C        95.91232604278350    2.75381122629438    0.46668954883899
C        97.16674670861470    3.44838976101783    0.51039153982724
C        98.13265672917055    2.52002537997697    0.31183066082170
C        97.46638204196687    1.25933106537580    0.15684361008390
N        96.12711207114071    1.42958829024185    0.23813927479105
C        98.13178071830465    0.03761329014701   -0.02389886048304
C        97.46454032453141   -1.18315226847741   -0.20443174914463
C        98.12867357234465   -2.44520355967069   -0.35735078587689
C        97.16121276987890   -3.37245041153830   -0.55355920571077
C        95.90793569312881   -2.67567919474625   -0.51135411388920
N        96.12495154689771   -1.35137949709398   -0.28552112528338
C        94.67899444407652   -3.28037970536630   -0.70341640159203
C        93.45112271474355   -2.64653398574680   -0.64434901574126
N        93.23603975636210   -1.33918167157505   -0.33357536834461
H        92.08901746620506   -4.33383288261354   -1.15274962412212
H        90.16980110863433   -2.47354964549159   -0.81066534782513
H        90.17332577666950    2.56189094073792    0.75501247321071
H        92.09555931372658    4.41741083188583    1.10657350216436
H        94.68495932385137    4.41851941793419    0.87763827308401
H        97.27493147571724    4.50397645390653    0.66838763872466
H        99.19467608414165    2.65750592208420    0.25790685575422
H        99.19044773819891   -2.58452553215476   -0.30341972422240
H        97.26761916770151   -4.42858712765706   -0.70912747091737
H        94.67809053129604   -4.33940310662365   -0.91885672024382
Cu      105.59665866013080    0.03702086010909   -0.01776835481462
C       103.11293686920087   -2.91598446610869   -1.80742756215239
C       102.14670691450351   -2.08326691232126   -1.35249167582977
C       102.81349844335945   -1.01570721881006   -0.66447994898298
C       102.14767334025315    0.03630430361807   -0.01797545981399
C       102.81297326090326    1.08752253334614    0.63026708554005
C       102.14591570567836    2.15304048454499    1.32112465682006
C       103.11197929668596    2.98481738601241    1.77821205314864
C       104.36728097487506    2.42050962219746    1.37323487040163
N       104.15262420643228    1.26491872743171    0.68744140648153
C       105.59618680101353    2.99701839886944    1.63874465703198
C       106.82577020154528    2.46959808240726    1.28838076045479
C       108.08161050267137    3.10699880224366    1.56293626623291
C       109.04789669016161    2.28063189346862    1.09663586361786
C       108.37975545944961    1.13746332840718    0.54419948997421
N       107.04005391647544    1.28110057051322    0.66156781469328
C       109.04388773974975    0.03820012204436   -0.01832048960737
C       108.38021288115308   -1.06076244109851   -0.58190234461242
C       109.04890933535123   -2.20241061825403   -1.13677824338045
C       108.08300688632504   -3.02919255119287   -1.60304733392626
C       106.82679170834700   -2.39382036700808   -1.32556821754232
N       107.04049852447444   -1.20561965737521   -0.69805338939582
C       105.59748678481833   -2.92402668779161   -1.67265800866674
C       104.36812341576554   -2.34951076620766   -1.40521948449228
N       104.15315365774875   -1.19251345734268   -0.72190013670046
H       103.00454073596622   -3.82563659898666   -2.36574536360428
H       101.08400750015829   -2.15939170823744   -1.47285191308732
H       101.08321344545776    2.22823084254319    1.44230850888376
H       103.00350863541881    3.89245582315981    2.33979948114789
H       105.59541489891564    3.94024436635147    2.16622500769000
H       108.19039566715557    4.05942941321284    2.04462684445851
H       110.11136189075566    2.41915538573117    1.10412922854943
H       110.11248824080482   -2.33972629983190   -1.14592208148618
H       108.19212813087206   -3.98055588537980   -2.08674257693436
H       105.59750458017879   -3.86776759960325   -2.19920396911150
