349
 energy: -611.155166751379 gnorm: 0.000410884924 xtb: 6.4.1 (bd6e46d)
Zn       57.86671784558313    0.00895929445832   -0.01554412837746
C        60.39986111896312   -3.42607540670793    0.00144666068620
C        61.35308418797153   -2.46313848692885    0.00270002874884
C        60.66398007013017   -1.20426359847375   -0.00215872436606
C        61.30281494400173    0.04660707524126   -0.00371058099710
C        60.63694992184875    1.28317264771689   -0.00775439544698
C        61.29833360557174    2.55680308808637   -0.00537244269999
C        60.32423400513505    3.49863803330590   -0.00829368814850
C        59.07131623873809    2.79806846905442   -0.01287680313726
N        59.29346235552636    1.45345751315473   -0.01215041152262
C        57.83013680909350    3.41229989492334   -0.01822843727908
C        56.60321668407854    2.76983177705018   -0.02399885253903
C        55.32992993942273    3.43774313877812   -0.03134380115434
C        54.38303712102558    2.47079750709822   -0.03574417124847
C        55.07713005287231    1.21119959497656   -0.03078039682829
N        56.41902922919783    1.42350462100119   -0.02388503859701
C        54.45853114432079   -0.02840847886798   -0.03222242996327
C        55.10403642961690   -1.25420907125734   -0.02666280039599
C        54.43766207688714   -2.52870572512512   -0.02725567083843
C        55.40549345478842   -3.47467630333702   -0.02028688071909
C        56.66384637153385   -2.77902672425279   -0.01556328775806
N        56.45025236308553   -1.43706711677717   -0.01954794327936
C        57.90454218277272   -3.39443903198253   -0.00838614510093
C        59.13192614415811   -2.75312323945403   -0.00447687582762
N        59.32457000413026   -1.40394762098796   -0.00641078889666
H        60.52829724475068   -4.49132425206543    0.00395410867946
H        62.41994619734888   -2.57632673292470    0.00618257020325
H        62.36248926534991    2.69327483123792   -0.00135505995775
H        60.42927615814698    4.56644574191459   -0.00735820849929
H        57.81912245640103    4.49344171349301   -0.01844099048788
H        55.19780667986221    4.50274923998770   -0.03302125546144
H        53.31552599033188    2.58062661803444   -0.04173207124441
H        53.37758978101473   -0.04021674856894   -0.03782200377937
H        53.37281144088164   -2.66190941380718   -0.03225892419929
H        55.29675222153159   -4.54232345676532   -0.01845212056842
H        57.91727408156603   -4.47555751819072   -0.00606525107569
Zn      165.49141782266929    0.04343350854955   -0.01405047104692
C       162.96695407914407    3.43292616715386    0.58204745638821
C       162.01126881209572    2.48704713215926    0.41522361743342
C       162.69717259014260    1.24509452773805    0.19875723162417
C       162.05537957601186    0.01328744485840   -0.00919927493116
C       162.71802911469615   -1.20730427681064   -0.21710296903163
C       162.05332655513703   -2.46139264685561   -0.42947719403057
C       163.02496355559899   -3.39075914889978   -0.59706075542140
C       164.27968805996687   -2.70216506396600   -0.48675837251589
N       164.06108273686772   -1.37718884799080   -0.25456498837042
C       165.51922768106596   -3.30834176371088   -0.60481754995919
C       166.74774197199807   -2.67680259222484   -0.50480947195601
C       168.01928819353921   -3.33568339513626   -0.63320969793270
C       168.96865603804039   -2.38505919666573   -0.47009384846075
C       168.27783061472368   -1.14448994898623   -0.24177012930268
N       166.93540747955660   -1.35166046450435   -0.26964368396964
C       168.89960346843546    0.07413824609393   -0.02354386145088
C       168.25724494192326    1.28124057701632    0.19905001697686
C       168.92690779296197    2.53379052783495    0.42502087539545
C       167.96151200130686    3.46684038400482    0.59539190846891
C       166.70134475043392    2.78530597026442    0.47332089650183
N       166.91148908341938    1.46410806105480    0.23504585945925
C       165.46224318505440    3.39455671372313    0.58068300780579
C       164.23320551977017    2.76662874709992    0.46668825912584
N       164.03715233797874    1.43839513922237    0.23300871214504
H       162.84124725520189    4.48249568555772    0.76611542476643
H       160.94467506306265    2.60127531442265    0.43505019245147
H       160.98883357020154   -2.59425215526994   -0.44604196083536
H       162.91711684208718   -4.44269577878662   -0.77882199983543
H       165.52741694093902   -4.37306178220080   -0.79267449203050
H       168.14863509879928   -4.38409547259676   -0.82241392725910
H       170.03586162445058   -2.49442427999301   -0.49815200315540
H       169.98057543378130    0.08391701985826   -0.02684616107069
H       169.99211039655654    2.66239806469647    0.44687716998877
H       168.07302451879630    4.51712533798258    0.78555121873350
H       165.45229192830618    4.45892580214129    0.77043016549849
C        62.70132502930971    0.06075505400637   -0.00100997033198
C        63.91956711452059    0.06956680263981   -0.00092807134974
C        65.26148973405130    0.07508593255663   -0.00179905152505
C        66.47986111304891    0.07642238297747   -0.00470199409153
C        76.15244636277910    0.05325350767098   -0.02284407734973
C        77.37107144029312    0.05018595007205   -0.02268454031986
C        78.71270261282997    0.04782766590449   -0.02321434046008
C        79.93134089818118    0.04619979922377   -0.02274342857776
C        89.60591245899556    0.04512138026259   -0.02110118527018
C        90.82462196691817    0.04536174389151   -0.02009435054072
C        92.16638437065131    0.04562381847267   -0.02135570202154
C        93.38509134342927    0.04622983129343   -0.02231842056551
C       103.06139966374725    0.04610300319918   -0.02091357357287
C       104.28014816888769    0.04650294303387   -0.02057749798837
C       105.62199564828258    0.04680451258022   -0.02032468130866
C       106.84075169649545    0.04633889976590   -0.02207419802376
C       116.51764168345224    0.04604882511512   -0.02080286776584
C       117.73639458516465    0.04716875307856   -0.02164282899939
C       119.07823917233067    0.04766973113690   -0.02171011525628
C       120.29698653960811    0.04585922982020   -0.02423330964112
C       129.97318121947643    0.04631533690362   -0.02085358173842
C       131.19187867746300    0.04642368112543   -0.02106564236706
C       132.53362111596695    0.04758093451300   -0.02125089824557
C       133.75230360821212    0.04810567937863   -0.02071716911959
C       143.42673355618413    0.04751399598564   -0.02306313621796
C       144.64535695271704    0.04515989164969   -0.02338308294766
C       145.98698216414175    0.04197836581654   -0.02395725096849
C       147.20558113603968    0.03689730205642   -0.02313469077098
C       156.87804805421533   -0.00461477751139   -0.01353099612308
C       158.09634536241145   -0.00530617854452   -0.01237934901607
C       159.43843649357251   -0.00297908832986   -0.00972384171087
C       160.65662234372107    0.00232370555889   -0.00941465498605
Zn       71.31603772427935    0.06510574538546   -0.01452897276905
C        68.81401120798900   -3.36862088442427    0.37833476120136
C        67.85162106803929   -2.42034839772694    0.27233475743965
C        68.52878603200688   -1.16358762641706    0.12953840997468
C        67.87784978187601    0.07379924094275   -0.00668542688223
C        68.53446378630342    1.30774625428268   -0.14604849109283
C        67.86286004763406    2.56773716028872   -0.28637140183556
C        68.82941232846447    3.51119392282838   -0.39741939906607
C        70.08704946461621    2.82451832062345   -0.32446442824165
N        69.87636888528714    1.48668135587303   -0.17123903528153
C        71.32367335842584    3.44235007482698   -0.40099565938047
C        72.55730559065447    2.81772851773176   -0.33476085633648
C        73.81796092972239    3.49770275289252   -0.41814780482962
C        74.78037939099913    2.54954459293168   -0.31165737018352
C        74.10335762986901    1.29330714323610   -0.16360775681023
N        72.76233011205848    1.47893220008178   -0.18081141462762
C        74.75466051509559    0.05661883328037   -0.02120722599761
C        74.09777900224424   -1.17691405655001    0.12290501022416
C        74.76917435736917   -2.43659403727591    0.26733137426832
C        73.80250960606220   -3.38006297559609    0.37694976609955
C        72.54492675937389   -2.69380074106754    0.29913785034388
N        72.75593370015791   -1.35590448660713    0.14520378317295
C        71.30848569062874   -3.31223661235127    0.37044236377101
C        70.07467240632249   -2.68811964254091    0.29997434321982
N        69.86989887924794   -1.34915053372211    0.14854763952473
H        68.69567613233957   -4.42822825352329    0.49838013031732
H        66.78586171542089   -2.54234861934659    0.28780621795198
H        66.79763528032863    2.69490140569631   -0.29708221183766
H        68.71574872247523    4.57131533749252   -0.51760670046851
H        71.32610989002515    4.51657927163964   -0.52430093232585
H        73.93611146335617    4.55697925486298   -0.54136306917981
H        75.84612029569968    2.67136282303957   -0.32955800421029
H        75.83436206065551   -2.56370815400581    0.28087694175949
H        73.91592960170719   -4.43999243354072    0.49889292083920
H        71.30599432022441   -4.38654504191427    0.49307864001343
Zn       84.76836856914566    0.04553323615209   -0.02167486097156
C        82.27382938203623   -3.39236977080841    0.38168258496471
C        81.30915325934831   -2.44698516504319    0.27046533370924
C        81.98323599979724   -1.18920402139938    0.12267538305455
C        81.32911094393059    0.04565192345817   -0.02266077811781
C        81.98351553422613    1.28044342053154   -0.16765639938290
C        81.30959786894614    2.53830137858815   -0.31567825523653
C        82.27439194882875    3.48359504988219   -0.42659305852881
C        83.53331365197569    2.80017483855183   -0.34591663110862
N        83.32504488286023    1.46232258578040   -0.18870107800003
C        84.76868733841611    3.42087470093264   -0.41851196737408
C        86.00386595957943    2.79999581389106   -0.34492165853956
C        87.26283810812168    3.48346151668520   -0.42473862995034
C        88.22759582454769    2.53822422943904   -0.31322103511142
C        87.55368048254294    1.28027998766041   -0.16571210801665
N        86.21213618072294    1.46211538534913   -0.18751986888076
C        88.20801208438368    0.04540241817456   -0.02081597916226
C        87.55340048594999   -1.18938778077841    0.12387575457744
C        88.22716096212366   -2.44741309545236    0.27137147245088
C        87.26230951931433   -3.39265737039832    0.38196607780385
C        86.00341548424670   -2.70912282292035    0.30173950901445
N        86.21185113921049   -1.37118042148193    0.14502963143932
C        84.76813954799729   -3.32991845824991    0.37440270366827
C        83.53285143352133   -2.70905574580652    0.30148118181925
N        83.32475848728227   -1.37119596073887    0.14425480047071
H        82.15805416489547   -4.45174604657826    0.50626630411530
H        80.24368284069595   -2.57166142994699    0.28505001384321
H        80.24415979830293    2.66310645699705   -0.33058479719159
H        82.15870544332475    4.54297641548670   -0.55112124286388
H        84.76877980373618    4.49475633416359   -0.54492280279577
H        87.37843016698541    4.54286487380458   -0.54926597549265
H        89.29304328637896    2.66309782831614   -0.32739090572277
H        89.29258153787411   -2.57234095524803    0.28619363168159
H        87.37782488732051   -4.45210997704836    0.50603551480355
H        84.76807165781908   -4.40385857346749    0.50031606544697
Zn       98.22309527743846    0.04609669026430   -0.02281516415409
C        95.72861608919710   -3.39204923502040    0.37821705231565
C        94.76373508782721   -2.44684582616277    0.26736735019287
C        95.43748311201813   -1.18870392974068    0.12099868696980
C        94.78299969698506    0.04629461443571   -0.02238340799969
C        95.43770479159372    1.28115118526814   -0.16592423893571
C        94.76410636903998    2.53948500223519   -0.31144974311501
C        95.72911578126754    3.48463301795266   -0.42177302141102
C        96.98792351099790    2.80067259507076   -0.34343219630784
N        96.77932653683307    1.46266397933247   -0.18787180888743
C        98.22334751481972    3.42121907079588   -0.41682799201529
C        99.45869474326260    2.80034344941353   -0.34537385735132
C       100.71755544375982    3.48393700878510   -0.42604183552722
C       101.68248796527888    2.53876114073418   -0.31548718632196
C       101.00883677620114    1.28072162848669   -0.16764226515689
N        99.66722490759163    1.46243819071918   -0.18874280205646
C       101.66341150431941    0.04600020335825   -0.02203608781412
C       101.00857325170197   -1.18866165817837    0.12297161965000
C       101.68208957558645   -2.44669114406121    0.27154305115981
C       100.71705441361696   -3.39176811121172    0.38213036137395
C        99.45827205085524   -2.70813415995807    0.30077117579283
N        99.66694253021790   -1.37031338331585    0.14351829845335
C        98.22289117235179   -3.32890576763111    0.37270726345587
C        96.98750175577378   -2.70834494773766    0.29900540409953
N        96.77906996564654   -1.37043124115614    0.14259500145856
H        95.61306939127574   -4.45155392374246    0.50191442618264
H        93.69830724614636   -2.57185886033233    0.28143725519032
H        93.69868288879036    2.66466347636013   -0.32513888385847
H        95.61369623905543    4.54425735972303   -0.54447817542171
H        98.22336019442383    4.49525595932666   -0.54197010760898
H       100.83300358286651    4.54337721668657   -0.55034250537139
H       102.74790943146027    2.66373814841636   -0.33054606348488
H       102.74750143347876   -2.57172058530838    0.28694114962215
H       100.83238677990130   -4.45115774544981    0.50697824130970
H        98.22288578588618   -4.40282829313773    0.49881972641629
Zn      111.67920309663461    0.04597723398509   -0.02205666702135
C       109.18464332733325   -3.39113431237179    0.38550418654974
C       108.21971689524995   -2.44599423074918    0.27447157288486
C       108.89338051418488   -1.18817065014491    0.12498325140422
C       108.23873971026107    0.04645770730151   -0.02118921669841
C       108.89360694605163    1.28092026796563   -0.16766231925355
C       108.22022323190103    2.53896240599324   -0.31661698003012
C       109.18535877839759    3.48377082812886   -0.42862385670502
C       110.44407234085655    2.79995014599495   -0.34770432694975
N       110.23528196829383    1.46230835512613   -0.18929012152745
C       111.67954703466049    3.42042019950547   -0.42083919718437
C       112.91489311405331    2.79982130700900   -0.34676486750970
C       114.17375806916328    3.48351838643292   -0.42635153082829
C       115.13867518771841    2.53849929750798   -0.31421291081841
C       114.46500297124844    1.28045434455398   -0.16660522301233
N       113.12339262483917    1.46206014217727   -0.18892729182566
C       115.11965541961170    0.04572144257267   -0.02122968646408
C       114.46481579082581   -1.18894142964740    0.12350912002658
C       115.13820493325770   -2.44712530041353    0.27121588868761
C       114.17306523227499   -3.39206070121183    0.38212619420290
C       112.91434486721296   -2.70815497627411    0.30194601520971
N       113.12313896227855   -1.37037019523292    0.14471934322813
C       111.67885856777448   -3.32854517140823    0.37562384381427
C       110.44350824105562   -2.70771173972402    0.30353608305922
N       110.23499580388140   -1.36996484406838    0.14557100022895
H       109.06914978534283   -4.45041456291604    0.51108166839935
H       107.15429323938206   -2.57084376640365    0.29031271423847
H       107.15482638913205    2.66419858288816   -0.33126294228254
H       109.07012369874310    4.54310112968677   -0.55405112059050
H       111.67965466198338    4.49422582770705   -0.54794394204862
H       114.28926030676742    4.54290398553778   -0.55101351282326
H       116.20409487018232    2.66360482250920   -0.32803248115895
H       116.20360772566885   -2.57232499815278    0.28594578336826
H       114.28830713965610   -4.45151363588943    0.50652217288293
H       111.67874524106666   -4.40244049816699    0.50197669529581
Zn      125.13523884712733    0.04614363118474   -0.02130501679170
C       122.64091025092438   -3.39133293869266    0.38513975833749
C       121.67596969289269   -2.44638254771964    0.27268329157863
C       122.34962982621695   -1.18841751000849    0.12421944283194
C       121.69496885357599    0.04618458218349   -0.02182186079914
C       122.34968878397017    1.28090391101412   -0.16701017152866
C       121.67614324295761    2.53900446819188   -0.31485074684284
C       122.64114688116173    3.48391203529759   -0.42706803934958
C       123.89994401523833    2.80010090438384   -0.34751360711555
N       123.69131159447574    1.46241382010941   -0.18911305676545
C       125.13531604346510    3.42042795331144   -0.42313985367051
C       126.37068708680543    2.79968896232871   -0.35057062265831
C       127.62956653705706    3.48296375333436   -0.43349724530144
C       128.59445809259910    2.53801403010429   -0.32055754984636
C       127.92070934816736    1.28046586891493   -0.16913859990962
N       126.57911924418758    1.46221590485751   -0.19036933720663
C       128.57528175392267    0.04608236881771   -0.02096600524291
C       127.92070794214781   -1.18836291604777    0.12664101773033
C       128.59434625102071   -2.44609299609977    0.27706241333318
C       127.62937713381403   -3.39111107602312    0.38879368866326
C       126.37054527698454   -2.70766961665245    0.30646496419340
N       126.57909782233905   -1.37006841776958    0.14744736673392
C       125.13511012555031   -3.32826985177752    0.37916102052249
C       123.89977392250438   -2.70767891544527    0.30492030490407
N       123.69124188947428   -1.36998405138236    0.14645524883584
H       122.52546810581212   -4.45063950802879    0.51059840586707
H       120.61053522897991   -2.57141141333382    0.28702653896448
H       120.61073990856734    2.66423120812442   -0.32862302001363
H       122.52578997059749    4.54331056493427   -0.55180432100299
H       125.13535606944981    4.49410468789230   -0.55131370737623
H       127.74510498819771    4.54202806919813   -0.56088311115667
H       129.65989087634478    2.66284171435905   -0.33616062901666
H       129.65976641630743   -2.57098638078592    0.29287727658862
H       127.74483144433290   -4.45032484839606    0.51499014830939
H       125.13505136839206   -4.40207230851661    0.50629992687617
Zn      138.58977635925470    0.04819600134849   -0.02156895845694
C       136.09556087067531   -3.38949110677753    0.38515962126030
C       135.13078147190396   -2.44426299798913    0.27381913603985
C       135.80465097834963   -1.18646338376076    0.12492100295092
C       135.15019498639936    0.04821290899445   -0.02126493693061
C       135.80463939962996    1.28282718374244   -0.16800019667778
C       135.13078849456437    2.54057097637443   -0.31753958288536
C       136.09558628480232    3.48567312019864   -0.42985297161645
C       137.35453257639162    2.80235145200551   -0.34845966785240
N       137.14618561254323    1.46465206557763   -0.18955242449511
C       138.58976128416131    3.42316690982443   -0.42181264541159
C       139.82509361634294    2.80255012548691   -0.34757075738954
C       141.08408772957353    3.48590858098588   -0.42801078190796
C       142.04880908701119    2.54068323432168   -0.31583495706616
C       141.37478062835106    1.28295790980434   -0.16725287918289
N       140.03324655525174    1.46485623538825   -0.18902212576186
C       142.02897095672185    0.04816920947558   -0.02178639766280
C       141.37468997681049   -1.18658060084414    0.12412723406331
C       142.04870671340956   -2.44434386829602    0.27244799286622
C       141.08399147940440   -3.38963196854781    0.38404165367520
C       139.82502062379737   -2.70629625976953    0.30357437326741
N       140.03318064275749   -1.36849872236622    0.14578940817488
C       138.58971138475013   -3.32702813868179    0.37695666954268
C       137.35450237887929   -2.70614438698643    0.30405027930238
N       137.14618843642762   -1.36833836563728    0.14606646487847
H       135.97999856367846   -4.44881321720964    0.51038129966002
H       134.06534549761273   -2.56906681685678    0.28891491563004
H       134.06535308627815    2.66540632767168   -0.33250889953441
H       135.98000895339783    4.54489969458598   -0.55580424582517
H       138.58974028597876    4.49690993578254   -0.54939854404931
H       141.19982703093331    4.54520006824049   -0.55338488420115
H       143.11427761199306    2.66542939786305   -0.33016256391851
H       143.11414446928515   -2.56909052198495    0.28722794365301
H       141.19974323504564   -4.44894895291964    0.50899391651675
H       138.58971012194766   -4.40088876086285    0.50353034413435
Zn      152.04183574243243    0.01569460026955   -0.01989865161824
C       149.53200733340310   -3.41377879416380    0.35997715707536
C       148.57183734510642   -2.46314822556489    0.25540488035772
C       149.25182369808064   -1.20760111534105    0.11518186834581
C       148.60336588515210    0.03103911067346   -0.02328854606198
C       149.26301281382413    1.26379455261652   -0.16094421776744
C       148.59454733398218    2.52535655036688   -0.30263127767299
C       149.56341157710614    3.46739718092985   -0.40484350548926
C       150.81940906312522    2.77839268701157   -0.32523236185296
N       150.60528458392375    1.44024036071703   -0.17801113184004
C       152.05725785766191    3.39490993696152   -0.38823761963766
C       153.28959158822445    2.76818183207584   -0.31499606195331
C       154.55188775278796    3.44664471289835   -0.38463289594775
C       155.51200354157046    2.49605091349402   -0.27902369129624
C       154.83182502141824    1.23985484067794   -0.14543737395064
N       153.49113564077953    1.42814226803593   -0.16906813113664
C       155.47985393482182    0.00033673633171   -0.01581578082398
C       154.82063380548448   -1.23330778702670    0.11208553145870
C       155.48933356739946   -2.49543177833338    0.24725844350761
C       154.52057221213090   -3.43746382398469    0.35072953372483
C       153.26450088041815   -2.74782608527908    0.27834840375547
N       153.47825194759710   -1.40967385132275    0.13272407975480
C       152.02644679981719   -3.36351103840527    0.34914299320139
C       150.79427642313254   -2.73603704803060    0.28306191623721
N       150.59240512268121   -1.39609300649299    0.13500083153461
H       149.41133619037691   -4.47337699146270    0.47788895305076
H       147.50580956526920   -2.58287509999064    0.26977037244922
H       147.52965956923734    2.65457422354130   -0.31954265036808
H       149.45248661032605    4.52804949122710   -0.52272068252207
H       152.06223057806307    4.46976288786208   -0.50590820258754
H       154.67276659888140    4.50655937952310   -0.49935685153338
H       156.57806212080030    2.61602400049692   -0.28996048839960
H       156.55427090141845   -2.62481812121698    0.26035858075984
H       154.63175499407009   -4.49842861008063    0.46563440768713
H       152.02156032977700   -4.43829967764567    0.46737974587229
