118
 energy: -199.825331156428 gnorm: 0.000486643130 xtb: 6.4.1 (bd6e46d)
C       -10.31043311735701    1.11805613218992   -3.30530132722521
C        -9.54422423653223    0.63272981982609   -2.30909331039809
C       -10.46549395267304    0.11374935102040   -1.31379866880772
C       -10.04242875119977   -0.48701781582931   -0.11004776638865
C       -10.91191776494643   -0.99187625421218    0.87001307218892
C       -10.55922721151874   -1.59957620823800    2.10449135332889
C       -11.71882862326327   -1.93289710397012    2.74329061829858
C       -12.80446780336429   -1.53696873547933    1.91202056787259
N       -12.26611023106391   -0.97429929313896    0.79479056603240
C       -14.15499804204992   -1.69674887528753    2.18530300801768
C       -15.22796771088161   -1.32749024517805    1.38573792756713
C       -16.61228964939654   -1.55597857422919    1.77485942939821
C       -17.36904791305881   -1.08314360944080    0.76740538836008
C       -16.44161204723817   -0.56819880067614   -0.22798444009283
N       -15.16427611257695   -0.73158300502055    0.17716729792710
C       -16.84928124537293    0.00864502719841   -1.42415928110593
C       -16.00496464743346    0.51591505635774   -2.39986853801034
C       -16.35836231324930    1.11878977603836   -3.64082587406210
C       -15.20231095146408    1.46839914239302   -4.27377118489243
C       -14.11316543628873    1.08761183148992   -3.43683316234094
N       -14.64726881844048    0.52000219178580   -2.32375584684637
C       -12.76293869319142    1.25899011395531   -3.70387292415942
C       -11.68916130690384    0.88895871953923   -2.90827757039716
N       -11.74134780671514    0.28122869954519   -1.69830186521409
H       -10.00863467204484    1.58513707866224   -4.22305247678119
H        -8.47514783436472    0.61137608732579   -2.22408913591502
H        -9.55340227563127   -1.75310077966101    2.44416780211163
H       -11.82344921805853   -2.40839943437250    3.69905877128885
H       -12.78308303209450   -0.59309469169315    0.01078181869154
H       -14.39676455200610   -2.16664790334917    3.12869648589457
H       -16.91958490271914   -2.01608021423846    2.69452491836383
H       -18.43792283637638   -1.06676555157453    0.67216970754568
H       -17.91201710290899    0.06798501062394   -1.60951604639856
H       -17.36326744183669    1.25924997576021   -3.98883679184146
H       -15.09887206264984    1.94444006774229   -5.22962537858115
H       -14.13303659868362    0.14600955814509   -1.53517839685875
H       -12.52008364319853    1.73430154279922   -4.64438246398722
C        11.50551916144792   -1.14776114356766    3.50619953546628
C        10.40817369789131   -0.86482149326366    2.77729842943301
C        10.88248316638276   -0.15828589991462    1.60105844964191
C        10.02621819707654    0.31615511167851    0.58816281536213
C        10.45994633665882    1.00884828034316   -0.55530864800827
C         9.65446281322410    1.51662806143533   -1.60943843740502
C        10.48753209655491    2.11352288068191   -2.51128531217860
C        11.81959467801961    1.98229450972508   -2.02769998450726
N        11.75012371183923    1.30985045354419   -0.84524734661355
C        12.97104608485044    2.44771220613946   -2.64537543547750
C        14.27794831616375    2.32704846149639   -2.19413632513767
C        15.41667245665189    2.85330784548534   -2.93296727590309
C        16.50803452781999    2.55503995415656   -2.20406229370088
C        16.02730576174998    1.85031017720566   -1.02571247144937
N        14.68313224455694    1.73113409091664   -1.05365912299267
C        16.86545682519416    1.37778305165453   -0.02362253715706
C        16.45446550438177    0.70377999204479    1.11604610934987
C        17.26103659623920    0.19949968672215    2.17606309609714
C        16.43006634419118   -0.38795973319844    3.08349209503828
C        15.09465394562572   -0.25891189478004    2.60158230600022
N        15.16258595293549    0.40417958573856    1.41730047610661
C        13.94247664365884   -0.72257837489388    3.21926681642009
C        12.63614905275765   -0.61260438854878    2.76631501157118
N        12.21868050666951   -0.02209575892785    1.62095643932071
H        11.57842607830037   -1.66115540152819    4.44571679646803
H         9.37948789685146   -1.09141769289637    2.98127334627013
H         8.58658781645447    1.42992495888129   -1.65817680242148
H        10.21540363783858    2.60050482639815   -3.42740753199345
H        12.53485972044154    1.06076410415096   -0.25423945831114
H        12.83115798020549    2.96135080449856   -3.58655329694003
H        15.34912281223677    3.36985253356781   -3.87134732992595
H        17.53927081428737    2.77128866968559   -2.40803538006039
H        17.92547935483636    1.55043598803818   -0.14126668557414
H        18.32945377033938    0.28230520693217    2.22433442543352
H        16.70233202254855   -0.86905077119928    4.00293946215584
H        14.38050557005471    0.65279650704587    0.82354093243643
H        14.08044871285885   -1.23078194230971    4.16381187955836
C        -8.66800927463853   -0.58270044260577    0.11704337910315
C        -7.45983970553153   -0.64416549411185    0.26645190896683
C        -6.12555572361542   -0.68295096231254    0.39268816681828
C        -4.90882476193454   -0.69647832207091    0.46637581300833
C         4.90638743146194   -0.36510111943450    0.84654084675061
C         6.11926886560464   -0.24296733772805    0.83661698759943
C         7.44946882192977   -0.08130157398149    0.79082725816960
C         8.65291901211268    0.09582820489973    0.71260373999552
C        -2.55583073185892   -2.71683763840437    3.29426321949757
C        -3.52554855875588   -2.18296625121450    2.52571147353945
C        -2.84424254772448   -1.39041034809295    1.51943343962260
C        -3.51456710183598   -0.67121894624455    0.51064704807782
C        -2.85559516701331    0.08388191755094   -0.47569533421026
C        -3.44039724359002    0.82938365629156   -1.53224115687104
C        -2.42173347763891    1.39933926313126   -2.24144619573735
C        -1.19555188216354    1.01484766175527   -1.63108197988711
N        -1.50985790046189    0.22052920893031   -0.57100630734147
C         0.07548491433745    1.39021605507429   -2.04391395631487
C         1.29649644363830    1.05736271472541   -1.48080200542489
C         2.55683320490388    1.54131353253549   -2.01764792326395
C         3.52419688980252    1.03599732874067   -1.22750338236082
C         2.84245286134596    0.24608617936004   -0.21882948690416
N         1.51135037665551    0.27624931500806   -0.39432389575866
C         3.51489567569074   -0.45504363567547    0.80401375737650
C         2.86032889388731   -1.23184336529551    1.77406635857548
C         3.44409647670969   -1.98487231396241    2.82573108527457
C         2.42584236200188   -2.58095474299640    3.51396675762030
C         1.19998305621819   -2.20223393795774    2.89804692121636
N         1.51518197165400   -1.38929031319479    1.85254551923083
C        -0.07112178652027   -2.58870955918225    3.30160596994010
C        -1.29440237037645   -2.24145625122365    2.75041861545382
N        -1.51108227914945   -1.44309864144608    1.67766428511398
H        -2.64841176621390   -3.36452856117829    4.14487293260234
H        -4.59031372179338   -2.29273835233360    2.59971311825349
H        -4.49424650463591    0.91044300291635   -1.71363232709057
H        -2.50212561995828    2.02909584936477   -3.10600029401963
H        -0.86505491020879   -0.21997208306295    0.07640054559870
H         0.11394551695114    2.03017728566645   -2.91516112649463
H         2.65037624578455    2.17716732880376   -2.87696657250677
H         4.58749877319084    1.16207277662408   -1.29105612656838
H         4.49724650144437   -2.05390600641365    3.01719310708257
H         2.50606725346994   -3.22339141352024    4.36922146758857
H         0.87168235010265   -0.94877716129079    1.20385427307694
H        -0.10856849069980   -3.24266723294371    4.16255204381780
