242
 energy: -444.711828490168 gnorm: 0.000661435238 xtb: 6.4.1 (bd6e46d)
Co       29.84036795942302   -0.00198714330485   -0.00367374859002
C        32.33966548583140   -3.40894661199992    0.07049710044533
C        33.29128073598473   -2.44879319098500    0.03899925007346
C        32.60021644430800   -1.19600737307726    0.01379966860099
C        33.26406775908323    0.03259369749023   -0.00305738828226
C        32.57554170310445    1.24758537380432    0.00588624109587
C        33.24120088669933    2.51418447997557    0.02431113001384
C        32.27039377329327    3.45513792242117    0.04971434952170
C        31.02306902221852    2.75323629224453    0.04005724778836
N        31.22102308087254    1.39740945420890    0.01468576620743
C        29.80241165229306    3.39267898895381    0.04042592301836
C        28.59706987522147    2.72677373712273   -0.00140934848154
C        27.33112494847017    3.39903576061440   -0.03486176368381
C        26.38665787431975    2.43541385658344   -0.09223699004941
C        27.08268279637634    1.18166132663387   -0.08599167876090
N        28.43525646656736    1.36959499671258   -0.03194950661611
C        26.43906293050190   -0.03674381739614   -0.11464618085619
C        27.10704881726786   -1.24165985555123   -0.07510908320210
C        26.43641687493422   -2.50919281607257   -0.06993291473491
C        27.40017828403212   -3.45309422842030   -0.00585045346792
C        28.65235636860487   -2.75519838402967    0.02024478474552
N        28.46318142534530   -1.40184662504055   -0.02082874984143
C        29.87095438757509   -3.39634366243609    0.06463065373396
C        31.07844865469462   -2.73243440984074    0.05794303257553
N        31.24902000605247   -1.37307864919334    0.02414923371013
H        32.45808515596004   -4.47464870673682    0.09669245767046
H        34.35872974873783   -2.55369520278611    0.03524510833033
H        34.30633900026367    2.64053062904372    0.02076191638407
H        32.36728563087360    4.52314739145658    0.06990984365530
H        29.79166010537797    4.47182401219626    0.06198800618175
H        27.20947258813956    4.46480277120899   -0.01891056990861
H        25.31935747669793    2.53645276032779   -0.13196266167602
H        25.36067961560009   -0.04777161947545   -0.15694118988624
H        25.37132483307269   -2.63203516016532   -0.10745039573911
H        27.30005024341979   -4.52093951811938    0.01901132924906
H        29.88201036137216   -4.47531065588079    0.09369595893867
Co      109.77350838069324    0.03208201743856   -0.00372655600074
C       107.28143458590718    3.37918151609699    0.66159774236792
C       106.32790111458317    2.44370152168478    0.45156355743882
C       107.01616090198887    1.21238021768091    0.21099209623264
C       106.34956610182695    0.00671243606423   -0.01823411719240
C       107.03562338086500   -1.19411472836303   -0.21236306781465
C       106.36756809451266   -2.44415177283648   -0.40951602405876
C       107.33657886221778   -3.37745700441608   -0.54546528852276
C       108.58528393227965   -2.68629663422544   -0.43740057403360
N       108.38990424006721   -1.34585342161944   -0.22978692762074
C       109.80464325255292   -3.31762669248777   -0.55393958206901
C       111.01116434616610   -2.65584868911881   -0.48731583290001
C       112.27541092595077   -3.31273596689056   -0.64826581657815
C       113.22155200954512   -2.35504427607219   -0.54093511557232
C       112.52836821783964   -1.12171952898697   -0.30679252144303
N       111.17572214475653   -1.31480293978569   -0.27870726878187
C       113.17464939386706    0.08058454354855   -0.11599591903640
C       112.50951384115102    1.25866868232764    0.14736040695873
C       113.18298413960115    2.50181696298201    0.38706649142925
C       112.22134534183500    3.41957775028897    0.62556552504329
C       110.96753591625621    2.73197108237005    0.52111609105048
N       111.15378022341591    1.40892871992106    0.23148223935450
C       109.75008191709600    3.35808591827430    0.67546512354474
C       108.54115349171508    2.71084842432709    0.53927575032179
N       108.36770895897324    1.37998013474811    0.26226298242412
H       107.16527538028251    4.42366530669538    0.87608122073911
H       105.26077152105057    2.55172058832864    0.45794561551291
H       105.30217537724346   -2.56609461442127   -0.43385187211283
H       107.23765901745533   -4.43310212905361   -0.70763472038339
H       109.81323168971991   -4.38411855717203   -0.72026106382680
H       112.39491027081435   -4.36458264206788   -0.82216835907323
H       114.28833234657493   -2.44847019117363   -0.60539075461894
H       114.25290097214837    0.09746682571544   -0.15971990983524
H       114.24836472968857    2.62711837108761    0.37268640767101
H       112.32391346656863    4.46407863271846    0.84794698263821
H       109.74118929289898    4.41379562917645    0.90026764101372
C        34.66132144773088    0.04629149309085   -0.01132199321600
C        35.88077651504046    0.05624699687106   -0.01676578596497
C        37.21763580168101    0.06577169784228   -0.02166800444851
C        38.44163317192199    0.06916675090478   -0.02221224291703
C        39.77838503027048    0.07286820434771   -0.02224671165849
C        40.99805198825852    0.07240934081679   -0.02256529738035
C        50.64918222415081    0.04436909255741   -0.01546108740845
C        51.86893060062009    0.03991408530109   -0.00758484232144
C        53.20543168011230    0.03797875342992   -0.00747823155934
C        54.42962444826382    0.03705602758631   -0.00355364051570
C        55.76611752324778    0.03656500046888   -0.00541469758691
C        56.98587626120886    0.03826541974146   -0.01123432719377
C        66.63669959263953    0.03412675389106   -0.01553562902765
C        67.85650015384083    0.03175856086845   -0.01352666924556
C        69.19298476155770    0.03287462480269   -0.01194197547966
C        70.41717564880571    0.03829474775449   -0.01123900435818
C        71.75366490410386    0.03967804410140   -0.01269964339936
C        72.97345701788602    0.04536697589319   -0.01281032719888
C        82.62507271201747    0.04430981664205   -0.02494522695534
C        83.84489537486975    0.04122408957578   -0.02803492017697
C        85.18151027503652    0.04128366458105   -0.02626156185361
C        86.40573610862334    0.03993854581460   -0.03051039124683
C        87.74234733932700    0.03605904131519   -0.02894709787663
C        88.96216999370233    0.03189945027198   -0.02640691782410
C        98.61497627444264   -0.00951931873530   -0.04277280773142
C        99.83465168971058   -0.01168932423086   -0.04633283172559
C       101.17159578074505   -0.01260195478957   -0.04844368018737
C       102.39558884505836   -0.01078113695075   -0.04722805151123
C       103.73265565727768   -0.00674179541526   -0.04227723671612
C       104.95212592315782   -0.00132621289755   -0.03369363039908
Co       45.82365739385419    0.05809922294799   -0.02532846528708
C        43.34531367782180   -3.34502308432247    0.35588591395106
C        42.38651223964623   -2.39727640215950    0.25051875766779
C        43.06850443547101   -1.14705343000968    0.11120963756943
C        42.39474224701175    0.06917483984010   -0.02343556378933
C        43.07596001764148    1.28088520598207   -0.16037395931023
C        42.40187837430623    2.53512742908914   -0.30206520865938
C        43.36667711706231    3.47619491306080   -0.41272578787110
C        44.61788168461033    2.78592262833753   -0.33686256654032
N        44.42892460265856    1.43740862342606   -0.18151624944738
C        45.83432025441923    3.42762247757046   -0.41377301196124
C        47.04664376371734    2.77793764642443   -0.33966027842152
C        48.30220598235962    3.45984426300265   -0.41873304134830
C        49.26097494455998    2.51276362148764   -0.30702283844371
C        48.57892407086243    1.26332324813800   -0.16132765144030
N        47.22705962735292    1.42847225113224   -0.18214123519438
C        49.25268775034264    0.04799645538466   -0.01844012947202
C        48.57143307020239   -1.16376849026677    0.11902720549948
C        49.24553236410410   -2.41774119805550    0.26290949652323
C        48.28073860941562   -3.35961233238427    0.36668037139523
C        47.02955809493778   -2.66997236736211    0.28525358639285
N        47.21853634362792   -1.32106045329971    0.13319336282390
C        45.81311433214648   -3.31243065377701    0.35466515825454
C        44.60083860125233   -2.66269698745168    0.28007412637326
N        44.42041531724185   -1.31247368455876    0.12938078375590
H        43.23517632805677   -4.40536703997263    0.47402185576954
H        41.31983857660902   -2.50899464357617    0.26319185096149
H        41.33590810373128    2.65374575327799   -0.31279442347255
H        43.26327882327748    4.53685038871536   -0.53412085223910
H        45.83771593971460    4.49993465881809   -0.53812929649400
H        48.41241732706012    4.51953345111611   -0.54257125595343
H        50.32767579156680    2.62445653554840   -0.31921537729009
H        50.31147581702636   -2.53580928886111    0.27922478279309
H        48.38417050068652   -4.42037897205248    0.48705375217091
H        45.80961529192982   -4.38519248607213    0.47505964750213
Co       61.81125891085982    0.03478302314200   -0.02262468251176
C        59.34212910559759   -3.37390914375375    0.37067881954017
C        58.38071671410924   -2.42870499427938    0.26589575664809
C        59.05930314412347   -1.17712840273154    0.12236954647381
C        58.38235200491926    0.03709805861616   -0.01494832641330
C        59.06041500314784    1.24992542663571   -0.15871990976151
C        58.38279448608627    2.50172177922042   -0.30493000947992
C        59.34493199578453    3.44489256065549   -0.42081249433032
C        60.59803979855172    2.75832015742698   -0.34324248004858
N        60.41284606597262    1.40992059260879   -0.18218556840856
C        61.81266898976422    3.40305606933729   -0.42290661652196
C        63.02677418502941    2.75698005331020   -0.34630728054987
C        64.28046282202547    3.44209722996475   -0.42720483585224
C        65.24180642518962    2.49800998328437   -0.31224562924463
C        64.56312904166748    1.24713023043929   -0.16308837309251
N        63.21084458585126    1.40852625242870   -0.18436962296975
C        65.24022547223026    0.03391708628807   -0.01777880908703
C        64.56228269786202   -1.17938933774954    0.12272185964108
C        65.23982215358330   -2.43124961856979    0.26872504441123
C        64.27761969138406   -3.37554601880501    0.37447475568228
C        63.02455055181747   -2.68942133525809    0.29248204339641
N        63.20983053430978   -1.34027384698524    0.13793571399017
C        61.80988976239066   -3.33500598169528    0.36439353901206
C        60.59577132869602   -2.68859867736690    0.29070121246778
N        60.41161963320084   -1.33911600418945    0.13777923174122
H        59.23488179837469   -4.43430021404871    0.49099917598775
H        57.31435843963480   -2.54307581583492    0.28110156794909
H        57.31650112636059    2.61746369019912   -0.31499908964586
H        59.23852778746176    4.50474100424077   -0.54661079971194
H        61.81309330063106    4.47491575977697   -0.55115164918593
H        64.38778661390481    4.50168431811993   -0.55436850570362
H        66.30819607419420    2.61258945134401   -0.32453290648231
H        66.30608529858746   -2.54640022220876    0.28486244755207
H        64.38396525245908   -4.43581899341545    0.49665743557142
H        61.80942060953269   -4.40755296727851    0.48675061076064
Co       77.79912866310212    0.04455101212726   -0.02317655654141
C        75.33165929857336   -3.36738643789216    0.35184946565607
C        74.36970169356643   -2.42306727703052    0.24410904177605
C        75.04753915665961   -1.16985103933579    0.11181628545774
C        74.36993557723454    0.04512613539762   -0.01546802640699
C        75.04753066577730    1.25965800979236   -0.14650574619944
C        74.36945085841882    2.51284053332758   -0.27787401739501
C        75.33116005860697    3.45656280818971   -0.39286461371150
C        76.58449743689053    2.76889442304992   -0.32993454658946
N        76.39985191973656    1.41962415296653   -0.17576586303237
C        77.79876981725430    3.41251340118802   -0.42295244308968
C        79.01314372654258    2.76527762483231   -0.36133175951220
C        80.26630761498167    3.44913992029643   -0.45918906081678
C        81.22831100375734    2.50536957845784   -0.34707731729092
C        80.55062297040517    1.25592006752155   -0.18242054360237
N        79.19818419049079    1.41760503219500   -0.19417733265395
C        81.22847487548995    0.04452714416661   -0.02559983766640
C        80.55080337724104   -1.16694945269751    0.13135589205975
C        81.22870589423749   -2.41664531599792    0.29321256732276
C        80.26686211869145   -3.36077480869537    0.40358654121775
C        79.01359355324350   -2.67675278775773    0.30842094798242
N        79.19838989911923   -1.32871427706844    0.14397361317631
C        77.79933415746586   -3.32405741156311    0.37132345608494
C        76.58487814016851   -2.67996875096735    0.28436946705827
N        76.39993602716778   -1.33030195272070    0.13406931582040
H        75.22498616754467   -4.42841768857126    0.46687532459522
H        73.30342955563557   -2.53895875454236    0.25130503525470
H        73.30315487513224    2.62899565043674   -0.27984557397596
H        75.22427429768373    4.51736581434863   -0.50982603368320
H        77.79871758256894    4.48443756762419   -0.55069640695412
H        80.37283619431676    4.50780703217139   -0.59439766094161
H        82.29457541714483    2.61938584224088   -0.37008855254054
H        82.29497815952105   -2.53067846978786    0.31528963076970
H        80.37355291128677   -4.41973883974478    0.53627622346907
H        77.79951036120153   -4.39629207403157    0.49641458771725
Co       93.78858378118953    0.01221195746439   -0.02321471889346
C        91.30647655405602   -3.38457761203638    0.38943568717047
C        90.34847484617356   -2.43682842717832    0.27679558865389
C        91.03149664360413   -1.18877999236034    0.12384867032645
C        90.35878734161288    0.02669542808391   -0.02311845597125
C        91.04167576406863    1.23699366864309   -0.16574449159100
C        90.36919263187887    2.49146680271560   -0.31273029723568
C        91.33514205813104    3.43214058660902   -0.41655590438629
C        92.58548606553141    2.74123223476047   -0.33286719501712
N        92.39481305968758    1.39267830215637   -0.17983687925616
C        93.80268774314388    3.38248148996045   -0.40040488843533
C        95.01439250908463    2.73161988343369   -0.32585154342545
C        96.27054422607480    3.41293325312578   -0.40098735313109
C        97.22853345738054    2.46389186269187   -0.29992453722214
C        96.54548835277967    1.21390680098110   -0.16355042334909
N        95.19364361056387    1.38086462356165   -0.17880630034666
C        97.21809754664631   -0.00375029036483   -0.03650125960560
C        96.53529629387505   -1.21470434379407    0.09950539380738
C        97.20772311463641   -2.47039029838897    0.23625317874802
C        96.24179646221674   -3.40952938389207    0.35315630532524
C        94.99148366401420   -2.71678023377964    0.28538924077280
N        95.18211583796199   -1.36871868652796    0.12838447567382
C        93.77434262338384   -3.35601224003648    0.37146848367167
C        92.56260460495047   -2.70460084705622    0.30279671904266
N        92.38327740928013   -1.35550958754381    0.14099513218499
H        91.19539631440506   -4.44359129010146    0.51812912566042
H        89.28170412410040   -2.54721596636406    0.29301536637328
H        89.30338532791257    2.61070659507801   -0.33019917850553
H        91.23300828081535    4.49288097378715   -0.53826968277395
H        93.80731286485107    4.45532996383842   -0.52005193347567
H        96.38161873576250    4.47350013323905   -0.51620744493143
H        98.29531721897612    2.57455427182118   -0.31382735851529
H        98.27350084127903   -2.59110755648797    0.24047489688367
H        96.34388835030104   -4.47038006918132    0.47395802676146
H        93.76987047347700   -4.42807340430012    0.49798243012235
