111
 energy: -199.609333022011 gnorm: 0.000436805792 xtb: 6.4.1 (bd6e46d)
Co       17.10014569801397    0.04121715046604    0.09382231551540
C        19.65094372437424   -2.85321284730830    1.76752202627491
C        20.58382524510018   -1.98661567047653    1.31021699186595
C        19.87018133857068   -0.91370023889174    0.68732158142582
C        20.49843436231124    0.22241062999262    0.16997272051944
C        19.76954441505849    1.35084603059311   -0.21080780182073
C        20.38066604913208    2.59984579972317   -0.54761278795311
C        19.37391275658622    3.48748201955914   -0.71582065956526
C        18.15513126236997    2.76044827558789   -0.52834882330024
N        18.41026537753891    1.45160072938126   -0.21668025892238
C        16.90649004666777    3.31014992915831   -0.73225740866598
C        15.75126297916902    2.55801536329446   -0.76568856919040
C        14.48081220319486    3.07929217860399   -1.17842895247886
C        13.63251122765838    2.02877685945100   -1.22947590654815
C        14.37886841339130    0.87997075964873   -0.80541554695423
N        15.67392049098631    1.21430324056177   -0.52760960441816
C        13.81912388373738   -0.36887103003907   -0.63100633667750
C        14.49620440743127   -1.41262780193404   -0.03505566677158
C        13.87161952549839   -2.64867124427820    0.33744371613456
C        14.79687386818923   -3.35605518615872    1.02256619978335
C        15.99328838396451   -2.56597667709289    1.02764225303410
N        15.79791329802668   -1.37921953189864    0.37888780120474
C        17.19016893607837   -2.99945307855537    1.55836098472130
C        18.37802032479231   -2.31970392931273    1.38785281288229
N        18.52469309706449   -1.11941293832883    0.74375348591588
H        19.79154405428744   -3.77595837585785    2.29600803298604
H        21.65139517086037   -2.03460514620343    1.40100271184243
H        21.43816679212334    2.75501414645200   -0.62956766787999
H        19.42968303317305    4.52938602814474   -0.96458036628815
H        16.84085141648194    4.36443736143436   -0.95427891279326
H        14.29392567287182    4.10943066341271   -1.41273396097793
H        12.59592323613967    2.01147963498411   -1.50548464807651
H        12.78464430991174   -0.51311228665083   -0.90277421713174
H        12.85510574384021   -2.90741617925611    0.11219344696270
H        14.70712896359820   -4.32544711892519    1.47337258487481
H        17.21276337298177   -3.95076033595528    2.06787993442390
Co       38.75189198603596   -0.02235846492421    0.08972142934426
C        36.21793614437559    2.79734949184853    1.90597344212430
C        35.28027670265981    1.96455183581976    1.39819887593709
C        35.98829389300116    0.91970462161239    0.72332187919245
C        35.35417221943611   -0.18673830589841    0.15122794475736
C        36.07733354567873   -1.30313642756872   -0.27399347406382
C        35.46095523048625   -2.53537174891592   -0.65946743081233
C        36.46363702975871   -3.42168046836342   -0.85716290097930
C        37.68569531497330   -2.70834488073577   -0.64058999923867
N        37.43601487229888   -1.41104496018867   -0.28020529137757
C        38.93226688938027   -3.25358683023371   -0.86872261813171
C        40.08888782062033   -2.50267162655251   -0.88061032946656
C        41.35480806376949   -3.00759297637954   -1.32632961532640
C        42.20337055681970   -1.95614174202509   -1.34432205105472
C        41.46296299781191   -0.82516648922389   -0.86541471582170
N        40.17022582717310   -1.16977836724368   -0.58942940278046
C        42.02717721140288    0.41298889597786   -0.63678080393498
C        41.35908296313791    1.42585101784520    0.01992176280100
C        41.99196865391185    2.63596524027702    0.45756192786058
C        41.07519981864457    3.30683160282744    1.18918097050193
C        39.87471108057323    2.52372564461991    1.15702389806209
N        40.06038797821778    1.37456651439507    0.44121893638200
C        38.68124662269302    2.93477404562058    1.71302680438785
C        37.48840532521164    2.27465782504347    1.50368217203421
N        37.33491570259941    1.11167798778079    0.79589342247622
H        36.08191417187741    3.69146901422427    2.48267957313500
H        34.21266615186818    2.01670958096752    1.48626601549571
H        34.40299815622252   -2.68211333105060   -0.75051464318631
H        36.40303650988812   -4.45341777295627   -1.14424011459985
H        38.99440741711584   -4.29880505200442   -1.13099688067425
H        41.53861648993665   -4.02758870638305   -1.60355807024073
H        43.23703020165880   -1.92848668832986   -1.63016387826420
H        43.05943547903028    0.56838643761244   -0.91072401835752
H        43.00809682402097    2.90278707772760    0.24033495389132
H        41.17313429218846    4.24824153399254    1.69423994552230
H        38.66532057993302    3.85649376600999    2.27449910467601
C        21.89868564564107    0.24744163364039    0.10370082377017
C        23.10917814109496    0.23681437990686    0.03234498375296
C        32.74348449971478   -0.17562958887514    0.01303896096545
C        33.95398672417191   -0.19944110925523    0.08141814372787
Co       27.92606442281965    0.03729791403660   -0.21046197724755
C        25.30612307289843   -3.25873971620660   -0.49245778500428
C        24.38996708933320   -2.27381575874025   -0.35427192303775
C        25.12533556649201   -1.05395018128554   -0.21253828723112
C        24.50781176299700    0.18890789725881   -0.05650927847982
C        25.24082537494453    1.37604646355503   -0.03005529617594
C        24.62744083063458    2.66571989868830    0.05667260680706
C        25.62508411493224    3.57265248681894   -0.04574906142279
C        26.83998687057646    2.82645786463307   -0.16983570571245
N        26.59465869024200    1.47901279209310   -0.14783215438185
C        28.07875752643197    3.41900724002812   -0.28401153280108
C        29.26169497044954    2.71326516222431   -0.30365521008318
C        30.54616410245687    3.34299441735151   -0.34872421436667
C        31.46259800095509    2.35280268360576   -0.25788705673337
C        30.72745793268005    1.12777610485245   -0.16974006251760
N        29.38425602961479    1.35160969525743   -0.21145041676448
C        31.34476182153001   -0.12091061622596   -0.07015038320710
C        30.61115246393998   -1.30784481341212   -0.09291448798508
C        31.22450776960851   -2.60008583505975   -0.06165379458829
C        30.22689961367755   -3.50178770989174   -0.20290248112060
C        29.01208018307772   -2.75090164627240   -0.29445636541269
N        29.25730741214679   -1.40563279835678   -0.21402321566341
C        27.77336243220215   -3.33778549452377   -0.43467239348577
C        26.59063450884688   -2.63162405630829   -0.42143075286877
N        26.46840396579589   -1.27549771807513   -0.26747941857745
H        25.14908446465424   -4.31184891355193   -0.62202663205106
H        23.31974281734953   -2.34045757101170   -0.36110885281923
H        23.57520022175296    2.82895132916542    0.18049721615715
H        25.56697956616522    4.64361239570947   -0.03212636051046
H        28.12687274338079    4.49656783502536   -0.32762909069803
H        30.70303324898082    4.40092357255831   -0.43055623699804
H        32.53285560555098    2.41959247089582   -0.26398486652153
H        32.27663658375489   -2.76835469968984    0.05571855532554
H        30.28493886536629   -4.57235119080619   -0.23513303729226
H        27.72500785465716   -4.41225948418114   -0.52676619975789
