342
 energy: -580.608907426286 gnorm: 0.000509895924 xtb: 6.4.1 (bd6e46d)
C        75.72952701145761    3.40215279358606    0.56794778684993
C        76.69645839858887    2.47545333777097    0.42205960102322
C        76.01323393891198    1.22270712825202    0.15437156985457
C        76.68981522402541    0.00586008136491   -0.05907241915694
C        76.05089134995821   -1.22399175117201   -0.28373284604887
C        76.66372536562021   -2.48269949324050   -0.52489519334898
C        75.66715278138736   -3.40115953043203   -0.68711443968580
C        74.42315391715651   -2.72222708904371   -0.55504744164808
N        74.70762866155589   -1.41255700849839   -0.31372315915946
C        73.16045981806435   -3.28696002930766   -0.65854259843237
C        71.93617789492399   -2.64054086042453   -0.56072391378444
C        70.66582991755119   -3.33924353418481   -0.69440157744471
C        69.70678870966945   -2.40494839639194   -0.55830668587035
C        70.39862539863120   -1.14361971920977   -0.34205354822229
N        71.73632759648267   -1.32355651299889   -0.34759522514076
C        69.74062510791336    0.06623156473918   -0.16005687701624
C        70.35532025532918    1.29061300799464    0.05221266582159
C        69.73940929219043    2.55896281960267    0.25349523380452
C        70.73222666010489    3.47637091997627    0.43169334661708
C        71.98011971218784    2.79310569549906    0.34268959529858
N        71.70005090264226    1.48345349748514    0.11203419006679
C        73.24276835700864    3.35153048942216    0.47403464204425
C        74.46702439185634    2.70474258209684    0.39176912038638
N        74.67992436304371    1.38949339057461    0.14798745501742
H        75.82458875280942    4.45053205497759    0.77644068149320
H        77.76042503373816    2.58738867989610    0.49761370543658
H        77.72192686042980   -2.64760936713616   -0.57785163194763
H        75.77294522968322   -4.45021314308827   -0.88418500699138
H        74.03039896778566   -0.67058566006774   -0.17966165896957
H        73.12974443885145   -4.35195261845810   -0.84314570418593
H        70.56470951037456   -4.39364308993790   -0.86743948564517
H        68.64014269966806   -2.51793773206708   -0.59434021334522
H        68.66058357772083    0.05203537977232   -0.18389279023479
H        68.68057368958873    2.73075984173206    0.25990104896387
H        70.62492250376367    4.52899233756528    0.60906046566996
H        72.37596318629897    0.73754489213376   -0.00123252787499
H        73.27554325512148    4.41525030260103    0.66606827820272
C       158.95735359116378   -3.42683731360190   -0.28751812058001
C       157.99383559507106   -2.48669135031771   -0.23505972278530
C       158.68190604546353   -1.21510076710729   -0.10352508919450
C       158.00981074083839    0.01935801688229   -0.01196018330472
C       158.65343493335030    1.26362532720075    0.08215544553880
C       158.04577675984254    2.54221385729678    0.20039327023373
C       159.04603019695509    3.46899327102183    0.26082409494073
C       160.28716168526009    2.77611583797261    0.18698737165633
N       159.99737521474287    1.44974534776485    0.08165830837646
C       161.55205569047911    3.34440392951695    0.22057473504902
C       162.77394926925967    2.68767305358753    0.17624929355005
C       164.04693613754606    3.39274698879019    0.22360782113793
C       165.00277150884941    2.44669780355465    0.17313305097661
C       164.30636762029809    1.17180199924043    0.09564039491958
N       162.96912291534599    1.35521731065940    0.09708772940942
C       164.96018426089765   -0.05236852997400    0.03411302842970
C       164.34084211716876   -1.29045078454114   -0.04056073423053
C       164.95179007248194   -2.57512275699355   -0.11069229538060
C       163.95509876209806   -3.50299865460189   -0.17940668973767
C       162.70973007388378   -2.80990905894084   -0.15243190527037
N       162.99512330423906   -1.48404778082596   -0.06620719548861
C       161.44466497765015   -3.37490721862491   -0.21338060972680
C       160.22272014549446   -2.71891684000333   -0.19258516481644
N       160.01479463697757   -1.38464685394545   -0.08729879417785
H       158.85824933790909   -4.49099289539962   -0.38422600324037
H       156.92920039591559   -2.60232742949961   -0.29335196210944
H       156.98849791307444    2.71514800707037    0.24566362689753
H       158.94455366272030    4.53289849725686    0.35223906994408
H       160.67101893574596    0.69523976234260    0.01763182958200
H       161.58689599635525    4.42252606876885    0.29588052890479
H       164.15175656780048    4.45903442130180    0.28658766941151
H       166.06994945297922    2.55969576647912    0.18546763283387
H       166.04044266329754   -0.03891110492120    0.04464648930796
H       166.01010280076886   -2.75022187807323   -0.10905881890047
H       164.05816333714475   -4.56895208889397   -0.24350871466820
H       162.32245166401000   -0.72772043619907   -0.02637181999116
H       161.40766607750388   -4.45294632365128   -0.29028326988160
C        78.09034793612928    0.01692955152446   -0.04733827892222
C        79.30388391754401    0.03681017877624   -0.03933036270324
C        89.13507500328602    0.01268700133199    0.02516317002508
C        90.34875455186362    0.02866483090636    0.03175985559638
C       100.17934702174897   -0.01993535579047    0.04210224265555
C       101.39338842519139   -0.00215064484451    0.03631241403321
C       111.22418518682865   -0.00221573533244   -0.03369867722548
C       112.43791520216105    0.02337687781194   -0.03838235169957
C       122.26443831177288    0.02683316963356    0.01624056763996
C       123.47840066580244    0.03374411054035   -0.00064185864756
C       133.31191065195571   -0.06314743181223    0.02124728394803
C       134.52576195178216   -0.03859134146214    0.04223587066327
C       144.35317210582360    0.05304499186218    0.07488062364112
C       145.56662893020075    0.07509173668648    0.06760990603874
C       155.39564349797109   -0.00331727798728   -0.00933936063218
C       156.60927070574522    0.01198271821507   -0.01301239633618
C        81.68429558810274   -3.25275921326934    0.96298407660841
C        80.70998122403391   -2.35750656064698    0.70888669811489
C        81.38396814687488   -1.13269144061063    0.32024830873686
C        80.70346680428032    0.04972584810543   -0.03043861690902
C        81.35182526818258    1.24707428866064   -0.37479350280763
C        80.75881344051206    2.47504674211129   -0.76870136844563
C        81.77098127067438    3.35963148638107   -1.00935405768816
C        83.00315537275110    2.68871362488803   -0.77233797180582
N        82.69770693716534    1.41763793182237   -0.39278198946496
C        84.27162744224078    3.23499663503024   -0.91247574870291
C        85.49866926165586    2.62052985926059   -0.72119207588126
C        86.75739594775317    3.31748537794985   -0.92580149159481
C        87.73150765820225    2.42281137509799   -0.66888460905122
C        87.05615204716429    1.19013308783994   -0.30758973009163
N        85.72135094765122    1.33742818611518   -0.34794494680633
C        87.73591333351217    0.00069113793736    0.01959765331062
C        87.08837091251620   -1.20309511265291    0.34164015404358
C        87.68288380937877   -2.43880637265858    0.70852816043608
C        86.67105231796322   -3.32302862610823    0.95197059948959
C        85.43792904243567   -2.64451723533039    0.74253774356714
N        85.74253603814962   -1.37000549896646    0.37352640691011
C        84.16930607051084   -3.18434098704714    0.90254259030246
C        82.94230205002260   -2.56333850691232    0.73139136937675
N        82.71906073421958   -1.28341091393684    0.34807082708431
H        81.59682121574464   -4.27457260003812    1.27892827474379
H        79.64627759487888   -2.47283933039029    0.78275779605705
H        79.70419213303833    2.64308147652318   -0.86505243083609
H        81.68243845142150    4.38074302624507   -1.32569170173828
H        83.35091040842484    0.67799904047998   -0.15869268881456
H        84.30307902050701    4.27200716871317   -1.21860618684896
H        86.84527630846235    4.34367782717974   -1.22709977792984
H        88.79598980234697    2.54332041338779   -0.72316172188568
H        88.73844100654573   -2.61173070465948    0.78525380961837
H        86.76038962446927   -4.34877909759031    1.25271846534399
H        85.08812415322809   -0.62611514045901    0.15710049512986
H        84.13716613594019   -4.22160821186481    1.20772705051897
C        92.72533919184525   -3.28698371979604   -0.87913733142725
C        91.75167155357823   -2.38779372837324   -0.63666236687743
C        92.42738709011986   -1.15483524397562   -0.27726351495769
C        91.74789525910236    0.03829391377829    0.03704035187132
C        92.39583148359718    1.24213862192314    0.35818743081553
C        91.80200107713750    2.48124971067418    0.71408778479412
C        92.81459922530820    3.36327645662381    0.96283514607864
C        94.04723052552691    2.67985674515560    0.76761609149724
N        93.74194291392992    1.40492012222735    0.40115318651602
C        95.31628887250839    3.21560804346743    0.93933032683316
C        96.54252468482365    2.58964189974713    0.78357451912321
C        97.80037954869702    3.27455207526683    1.02888119772588
C        98.77407920820387    2.37571207538277    0.78535661030053
C        98.09996737918692    1.15336487057931    0.38936977600023
N        96.76555152738889    1.30835486048712    0.40343930012026
C        98.78072721702242   -0.03133883846764    0.04491214810046
C        98.13171434408720   -1.22865513478888   -0.29958155947575
C        98.72426943232610   -2.45981668798969   -0.68351950998607
C        97.71166595829892   -3.34355478129423   -0.92563215331303
C        96.47973441877787   -2.66847383328769   -0.70020662922193
N        96.78579508275499   -1.39597239282189   -0.32541814575948
C        95.21077311391910   -3.21173545379151   -0.84634301904637
C        93.98418422823332   -2.59224955631004   -0.66850221417332
N        93.76215105192551   -1.30612491955519   -0.30543595068840
H        92.63708071868164   -4.31487603262202   -1.17443098339540
H        90.68739499890080   -2.50550975284341   -0.69959535972541
H        90.74636053006385    2.65787763805977    0.78066911429512
H        92.72595991513563    4.39058435132379    1.25842792508390
H        94.39520175470643    0.65754145968512    0.19317829990754
H        95.34894685168894    4.25370989047399    1.24161558301910
H        97.88806049151546    4.29589173638680    1.34630761999171
H        99.83725184069169    2.48660304863875    0.87191809787495
H        99.77895943341552   -2.63070165081535   -0.77282716255904
H        97.79995475004246   -4.36661806357827   -1.23563440140512
H        96.13292847293656   -0.65365461224159   -0.09892952903186
H        95.17825514692501   -4.25050798093101   -1.14629875676044
C       103.79180287719048   -3.39121718076111    0.54437652355884
C       102.81286835929120   -2.47238179930115    0.43136205951156
C       103.47953169139211   -1.20360599386147    0.20546711317343
C       102.79192357100575    0.01321073343061    0.02665237669447
C       103.43404231239010    1.24833338777728   -0.16273898941828
C       102.83407108207705    2.51759760821913   -0.37056921145795
C       103.84167650420912    3.43026587488817   -0.50031725775210
C       105.07768666495606    2.73604470791998   -0.38035675129852
N       104.77918191275919    1.42295913740373   -0.18054111062359
C       106.34336147907392    3.30196735069889   -0.44940114515105
C       107.57351773835805    2.67162411698468   -0.35534783043682
C       108.82800527985719    3.40181826470073   -0.42289854609382
C       109.80688295642155    2.48374329523986   -0.30355204755231
C       109.13886668697113    1.20243535304849   -0.17075523077782
N       107.80340119645969    1.34570266736219   -0.19800006373700
C       109.82559880926188   -0.01922875982566   -0.02666541288270
C       109.18384793617030   -1.25885462633335    0.12988046186972
C       109.78376576219326   -2.53872129005712    0.25817110455436
C       108.77636606625232   -3.45125027785199    0.39090841780002
C       107.54063127701725   -2.74783185112186    0.34150880305233
N       107.83905609648460   -1.42952384347009    0.17973215706514
C       106.27508288925776   -3.30830455140919    0.44747217135855
C       105.04536260853254   -2.67233343303243    0.39235463063399
N       104.81475613423090   -1.35185032536812    0.19464526115932
H       103.71030713331373   -4.44725710353158    0.71670874750154
H       101.75052893458709   -2.60004937400742    0.50370363589468
H       101.77804199400273    2.69484015489071   -0.42448468460407
H       103.74737980711657    4.48570401133672   -0.66680318192207
H       105.43601403823546    0.65890895012628   -0.06468736933564
H       106.36936189373905    4.37352904759524   -0.59488659441806
H       108.91013769733196    4.46532344042708   -0.54019890187430
H       110.87014529415268    2.62318963883572   -0.28741196151645
H       110.83948002501329   -2.72535465505058    0.23751332814433
H       108.87059025781627   -4.51318532314335    0.50920358523929
H       107.18180902217644   -0.66140429519800    0.09875262299505
H       106.24867141436388   -4.37986897518532    0.59292907989800
C       114.81909542789093   -2.78828101758346    1.93555287111705
C       113.84431815291271   -2.02601301860633    1.40258315572250
C       114.51825843737552   -0.97603384758111    0.66156925688847
C       113.83653903503014    0.04167544696262   -0.03448076785508
C       114.48231866365010    1.08207386146658   -0.72255820756851
C       113.88589732551685    2.13451089130890   -1.46498239219560
C       114.89587981363741    2.90440033459077   -1.96722872244191
C       116.12979530798205    2.33471666493405   -1.54643877550424
N       115.82764078271933    1.23888751562926   -0.79735029912232
C       117.39759262945552    2.80428689241508   -1.86106888479335
C       118.62505373063789    2.27086334810980   -1.50258812275546
C       119.88246757366699    2.85451100507936   -1.93816201148141
C       120.85721305948985    2.08062853325854   -1.42215869415381
C       120.18405820433804    1.03740294662217   -0.67117097130316
N       118.84927191640236    1.17314805235946   -0.74071500927729
C       120.86586375233290    0.02120187448647    0.02697725534226
C       120.21948010240092   -1.00378638975523    0.73766045680414
C       120.81576179493518   -2.04098427557616    1.50122583255431
C       119.80567251664334   -2.80093088462266    2.01835220230596
C       118.57199279125821   -2.24112176780594    1.58410813893788
N       118.87416351809424   -1.15851672630607    0.81600313499765
C       117.30421689234572   -2.71324728291663    1.89517199641585
C       116.07697127348325   -2.19358989149869    1.51659663415181
N       115.85310586226419   -1.09998332905747    0.74860940900871
H       114.73208049975874   -3.66185848214934    2.55268125298388
H       112.78016411225248   -2.12310748621684    1.49410153383274
H       112.83057370895473    2.26661158342409   -1.60128649754545
H       114.80459967414946    3.78269078638670   -2.57617359346415
H       116.48330256845529    0.60632090419872   -0.35193193034229
H       117.42815758905255    3.69502040277409   -2.47402781326262
H       119.96914672107177    3.72829131771284   -2.55507279402528
H       121.92071629808113    2.16648267184870   -1.53025870559009
H       121.87102077486929   -2.16920063661143    1.64167447056910
H       119.89686489475791   -3.66638695666485    2.64544160116342
H       118.21833838209527   -0.53331053593144    0.36058179710567
H       117.27350198808288   -3.59658936086948    2.51871780149109
C       125.83710185622219   -3.38473858833643    0.49422867353407
C       124.86817090916006   -2.46129121957060    0.33977816905909
C       125.54976087656891   -1.19159343393690    0.17025754767360
C       124.87686134628139    0.03236489941290   -0.01513599230898
C       125.53380133879790    1.25742765201769   -0.21745428174389
C       124.94985448215193    2.53827177437813   -0.39786361264410
C       125.96837453319401    3.43190893953278   -0.56851013455825
C       127.19522388328349    2.71593300506353   -0.48897629011811
N       126.88058636230295    1.40923221335066   -0.27310703165495
C       128.46731968730492    3.25671998818148   -0.61620958718223
C       129.68971528465028    2.61112890531301   -0.52515272728400
C       130.95146785833796    3.30947284226075   -0.70188642110718
C       131.92021600800527    2.38844935568923   -0.53294899227777
C       131.23917941864590    1.13908635200006   -0.24940078961083
N       129.90548572565967    1.29976905092036   -0.26057131816879
C       131.91360780947588   -0.07278467277732    0.00141901890348
C       131.25693799065121   -1.29275004312169    0.23370941212932
C       131.83985775435275   -2.55767012743717    0.50578074295313
C       130.82085843852641   -3.45525975943198    0.65102986336670
C       129.59436019145940   -2.75522275211325    0.47815370079095
N       129.90994356423323   -1.45422315514484    0.23152561634689
C       128.32217759095951   -3.30673837106335    0.54619363165147
C       127.09926815513191   -2.66917060270430    0.41381596031087
N       126.88355079246524   -1.34708848365389    0.21063802935548
H       125.74349985258468   -4.44315297264958    0.64436121122619
H       123.80371864141689   -2.59103243418225    0.32018689804444
H       123.89667643875239    2.73880955503164   -0.38506016238038
H       125.88737078843430    4.48908468156807   -0.73096645569482
H       127.52741033742012    0.63630084267858   -0.15951381733429
H       128.50612656862543    4.32029572337200   -0.80959674708439
H       131.04499204092636    4.35454799243770   -0.92683437571063
H       132.98417060157092    2.50212610458315   -0.60360518529285
H       132.89270103758017   -2.74226755147147    0.58866429476708
H       130.90127397665574   -4.50386485769521    0.86206833587459
H       129.26412928783108   -0.68865225753650    0.07146743433149
H       128.28388995388414   -4.37209606962697    0.72976963271733
C       136.95383987986435   -3.36793467743270   -0.67789937619875
C       135.96693811674663   -2.46765962645752   -0.50253782343619
C       136.62251162761754   -1.20990313932834   -0.19668695939841
C       135.92401806709137   -0.01320420357076    0.05924462499237
C       136.55479909750005    1.21252528157081    0.33102137917273
C       135.94276999097937    2.45599092352456    0.63678547352624
C       136.94118694636083    3.36809216628324    0.82702801554038
C       138.18376606332686    2.69920825248470    0.64638102629143
N       137.89800644151705    1.40126294181068    0.35093070071029
C       139.44374040099262    3.27088354779239    0.75815434433561
C       140.67992221975001    2.66099596878725    0.61751534391963
C       141.92843901260557    3.38714495151430    0.77793572966393
C       142.91534656103798    2.48955942506769    0.58856563745312
C       142.25761430831915    1.22561612944510    0.31316504596249
N       140.92077797757119    1.35775533117123    0.33710856165877
C       142.95417282238506    0.02479017799061    0.07662709228565
C       142.32491092530515   -1.20844475112515   -0.15868014305826
C       142.93871284495393   -2.45953540832864   -0.42878188364215
C       141.94056620049358   -3.37308332300502   -0.61379448615301
C       140.69711128638230   -2.69785125410214   -0.46441855743243
N       140.98163907055124   -1.39575678890784   -0.18778745234184
C       139.43687625934874   -3.26482151344781   -0.59598002201821
C       138.20117624645050   -2.64849907956768   -0.48323690883634
N       137.95893161336423   -1.34631386627287   -0.19735553346697
H       136.88151491423261   -4.41127396932829   -0.91824618021525
H       134.90564207582875   -2.60043633520850   -0.57977915708910
H       134.88547656644022    2.61611427978846    0.71404828062055
H       136.83649799271916    4.40676278382469    1.07352578802770
H       138.56305299975654    0.65660520233439    0.17305103479191
H       139.45937617989324    4.32690603426124    0.99189291860585
H       142.00146217729124    4.43313716391194    1.00628464623009
H       143.97804529059110    2.62751004238752    0.63734335675458
H       143.99703400517600   -2.62331365336677   -0.48451544755585
H       142.04588905010175   -4.41684738500030   -0.83748905609485
H       140.31587582945315   -0.64696078679963   -0.03123499193822
H       139.42076690983833   -4.32189292124184   -0.82492272889899
C       147.94075406677541   -3.13809100372157    1.28517261963959
C       146.96793670156592   -2.26377552592566    0.96203917004552
C       147.64470841250372   -1.07383522651032    0.47995442103005
C       146.96583809169235    0.08538907375727    0.05650312622993
C       147.61333881245443    1.25113752551773   -0.38287369865984
C       147.01938628133476    2.45291190446493   -0.84981161670342
C       148.03194370173077    3.30171436327108   -1.19523811713763
C       149.26471662793904    2.63477796496420   -0.94920269547119
N       148.95937556844555    1.40314924834779   -0.45628152477713
C       150.53357734477134    3.14485407929154   -1.18644027063550
C       151.75940438905178    2.53224597915938   -0.97976358376449
C       153.01726597167206    3.18547591545581   -1.30027677370045
C       153.99056509716442    2.31243543688222   -0.97501923744503
C       153.31620677082375    1.13709650656587   -0.45606005375363
N       151.98172202556327    1.29435456467985   -0.47657281771275
C       153.99606058179737   -0.00960976250188   -0.00099077167715
C       153.34723419842624   -1.16482472935815    0.46494279783338
C       153.94008059632645   -2.35413520731333    0.96373812231815
C       152.92738235041335   -3.20614642412565    1.30045408683752
C       151.69517682079459   -2.55257441806405    1.01959886547924
N       152.00099005876032   -1.32454458206226    0.51822478750392
C       150.42611941944097   -3.07477844629777    1.22851404635681
C       149.20005807454226   -2.47149266273620    0.99941836961593
N       148.97911223457996   -1.22619107499954    0.51396839270709
H       147.85169211321278   -4.13195472006322    1.67995719298875
H       145.90377260695908   -2.37128317477827    1.04306966226577
H       145.96352168154820    2.62766556443683   -0.91877589245196
H       147.94328260340563    4.29592103361730   -1.58805550443714
H       149.61257861766620    0.67633240018861   -0.18498245777823
H       150.56702451130033    4.14745972071215   -1.59109738172337
H       153.10522684680384    4.17024825423630   -1.71746982846612
H       155.05349837979750    2.41149627004480   -1.07802018206272
H       154.99512043029381   -2.51921360441358    1.06021020716898
H       153.01565196873327   -4.19383034132220    1.70944060729560
H       151.34810443567849   -0.60587254479399    0.22526624536183
H       150.39318502003400   -4.07876409276169    1.62972738273586
