232
 energy: -404.948431325179 gnorm: 0.000554138092 xtb: 6.4.1 (bd6e46d)
Zn       36.17732452290016    0.00684607193503   -0.01370094600342
C        38.71080873553207   -3.42840785904541    0.01644622045235
C        39.66403856722316   -2.46546428589102    0.01545321513471
C        38.97482678456868   -1.20656386779554    0.00491734531985
C        39.61359283227196    0.04433845705802   -0.00192528675404
C        38.94779616600587    1.28088940973547   -0.01065963407730
C        39.60939362928885    2.55441692410521   -0.01401654101484
C        38.63541832144050    3.49637780734242   -0.01830818770887
C        37.38237932914881    2.79595530336144   -0.01830017517492
N        37.60434771170274    1.45131368365789   -0.01380574465347
C        36.14121469832179    3.41023912898742   -0.02233744495385
C        34.91429692533992    2.76773579527782   -0.02485431838900
C        33.64099783937663    3.43564981810670   -0.03086985375480
C        32.69409344460195    2.46869688020039   -0.03430671347625
C        33.38822096357450    1.20908595962943   -0.02999440138031
N        34.73015241612723    1.42135923034934   -0.02388439157602
C        32.76962346291034   -0.03053788041304   -0.03249310027135
C        33.41507559629379   -1.25638017076729   -0.02689012871905
C        32.74861736441495   -2.53086478600348   -0.02867905604414
C        33.71639942973228   -3.47687369604959   -0.01892902517071
C        34.97478647823473   -2.78125149983403   -0.01145800858079
N        34.76130300569046   -1.43925004526776   -0.01704880200947
C        36.21544479656863   -3.39672335452857    0.00042675694385
C        37.44284407389131   -2.75543590679033    0.00594120490285
N        37.63543993899957   -1.40623186552921   -0.00014407954810
H        38.83931499712354   -4.49365433224495    0.02329303690492
H        40.73092506046942   -2.57860618122155    0.02100317990156
H        40.67356708318717    2.69077953382916   -0.01254213786192
H        38.74073541904720    4.56415692357611   -0.02135851133490
H        36.13018323570209    4.49137515841532   -0.02441849636148
H        33.50889637177285    4.50068563671901   -0.03242367651104
H        31.62655484417479    2.57853871531695   -0.03918274407436
H        31.68868972664990   -0.04231160467920   -0.03890868000881
H        31.68375607569731   -2.66405011495794   -0.03635641620594
H        33.60761432640920   -4.54453509363476   -0.01698538530364
H        36.22813248653201   -4.47783381951139    0.00514181870146
Zn      103.43588934781668    0.04043586862908   -0.01106205193784
C       100.91118941725414    3.42566882203437    0.61000040244413
C        99.95562257521884    2.48048581055467    0.43865661872358
C       100.64170242092567    1.24051178003548    0.21181970992036
C        99.99987509536119    0.01028494550890   -0.00531569097565
C       100.66226101416122   -1.20885842647614   -0.22219040752672
C        99.99731864579400   -2.46122801222933   -0.44487457894548
C       100.96891832456848   -3.38981217797806   -0.61699377626784
C       102.22380185146817   -2.70251334318005   -0.49927963135676
N       102.00530949096665   -1.37896068776883   -0.25878396108193
C       103.46334634739682   -3.30853317642801   -0.61788373327098
C       104.69186239162407   -2.67779788869980   -0.51247652505530
C       105.96344166924629   -3.33650440234009   -0.64141232662135
C       106.91278879487074   -2.38648801914884   -0.47459413404991
C       106.22189275488269   -1.14645478300160   -0.24355044610640
N       104.87941740372638   -1.35346205451800   -0.27263602453303
C       106.84366886155608    0.07188816585444   -0.02382120948208
C       106.20140081682005    1.27855290147213    0.20146270341920
C       106.87116011919079    2.53093412558078    0.42818799202478
C       105.90580179331627    3.46301790351324    0.60406815091556
C       104.64560485746156    2.78104640910188    0.48452737448863
N       104.85563268834736    1.46066948827481    0.24156125388692
C       103.40651921514450    3.38902330274006    0.59959078245025
C       102.17749288847190    2.76089214678956    0.48683694294737
N       101.98160642362589    1.43404764877405    0.24496249879230
H       100.78534819120982    4.47381330146956    0.80191626884870
H        98.88903186355719    2.59402194992313    0.46174220069912
H        98.93281999854892   -2.59356087360739   -0.46497127094589
H       100.86070849766374   -4.44029577327121   -0.80685367143851
H       103.47159575987885   -4.37229004288804   -0.81109495703330
H       106.09283770730653   -4.38439229173409   -0.83352208852391
H       107.98003762612007   -2.49592211673687   -0.50177929311101
H       107.92463138827571    0.08183221518698   -0.02825996684771
H       107.93639296475230    2.66010857946104    0.44664241051172
H       106.01729106176121    4.51293757447208    0.79631942930740
H       103.39660331567751    4.45243718984776    0.79459592985753
C        41.01205312359203    0.05844244358682   -0.00028238056797
C        42.23026210402912    0.06555737643958   -0.00106082334049
C        43.57215019034405    0.07092963028532   -0.00134624456132
C        44.79057186709220    0.07083155273807   -0.00326167754446
C        54.46324140316211    0.05046376591080   -0.02233722949846
C        55.68188986280167    0.04754342677415   -0.02267730514057
C        57.02356225427926    0.04480030971415   -0.02360040777001
C        58.24222208481913    0.04313051002361   -0.02290476947675
C        67.91758987136247    0.04173853561910   -0.02240581378695
C        69.13630987981658    0.04212310505800   -0.02445524597458
C        70.47809327798072    0.04228941135740   -0.02653546264033
C        71.69680899047623    0.04361076559554   -0.02681331757379
C        81.37179521764507    0.05187807717341   -0.01660554148312
C        82.59041834791648    0.04508238720829   -0.01837872016915
C        83.93203311064050    0.03682150977847   -0.02108415742052
C        85.15061551725992    0.02756898585192   -0.02338644296794
C        94.82270690878661   -0.00511701828611   -0.01074138407564
C        96.04097516736094   -0.00749881500344   -0.00884591502335
C        97.38301571511860   -0.00544775477910   -0.00677779738867
C        98.60116374193689   -0.00007212957462   -0.00534548243297
Zn       49.62719562652463    0.06115042421549   -0.01309604154555
C        47.12537341094313   -3.37319152035876    0.38078400835351
C        46.16284027208858   -2.42517801293117    0.27400022914322
C        46.83989880653947   -1.16824918454400    0.13102822760550
C        46.18852537603316    0.06886529846957   -0.00564943249626
C        46.84462353147955    1.30307314384325   -0.14493837604180
C        46.17263386622273    2.56288875597764   -0.28498667950738
C        47.13892807805739    3.50657326950178   -0.39639571141209
C        48.39679788113295    2.82018242374008   -0.32378494622004
N        48.18646631156987    1.48229637813716   -0.17036972183916
C        49.63330148740511    3.43813155031015   -0.40129373271706
C        50.86710810706002    2.81373049100553   -0.33565750460949
C        52.12754979201750    3.49386459316394   -0.42062619020176
C        53.09026668989281    2.54601697101708   -0.31388941078625
C        52.41366713091274    1.28980623424426   -0.16401135366576
N        51.07252888984586    1.47506463840888   -0.18069004124344
C        53.06541586719344    0.05350195547637   -0.02012366654468
C        52.40884699851876   -1.18006259989575    0.12573470505238
C        53.08050051482646   -2.43944451579141    0.27205865465339
C        52.11400299513130   -3.38299170571368    0.38264754076188
C        50.85627794793218   -2.69715765715867    0.30332318949060
N        51.06698457697966   -1.35937914153576    0.14781403748889
C        49.61996873339719   -3.31599268502770    0.37446469113077
C        48.38596327293590   -2.69240552032728    0.30281466139899
N        48.18096702190383   -1.35352968682744    0.15068871040450
H        47.00718425190794   -4.43280791444112    0.50109086343057
H        45.09706990905197   -2.54729265392396    0.28902835879676
H        45.10736608696536    2.68983770793739   -0.29535615773257
H        47.02486667542561    4.56666712603018   -0.51659612690617
H        49.63551106827118    4.51230302399129   -0.52514277542098
H        52.24541666090139    4.55308115755199   -0.54487916514535
H        54.15598636088667    2.66815045702980   -0.33263621952188
H        54.14570253072229   -2.56635448867911    0.28628266894335
H        52.22759920157369   -4.44271534505470    0.50622708187692
H        49.61786576226543   -4.39019621293729    0.49802301239156
Zn       63.07999521399945    0.04227046703180   -0.02062199846102
C        60.58478986204921   -3.39521992799098    0.38430961924342
C        59.62011008358287   -2.44997883622989    0.27190599203275
C        60.29420805427859   -1.19217543526266    0.12372481741435
C        59.64004048848194    0.04257344316773   -0.02253007972696
C        60.29462629086680    1.27728964950310   -0.16773709778139
C        59.62093588532730    2.53528018566922   -0.31606606046919
C        60.58589508680090    3.48046919643825   -0.42644268326591
C        61.84473806562367    2.79684682062808   -0.34530298535058
N        61.63620035469917    1.45900821430938   -0.18827306058069
C        63.08021006627558    3.41740591026500   -0.41740291402586
C        64.31540800617057    2.79648654510428   -0.34412741131640
C        65.57439819744695    3.47992378001171   -0.42429033096529
C        66.53915286820579    2.53453767844028   -0.31370605238088
C        65.86525773342134    1.27661774719685   -0.16598140980521
N        64.52365902827721    1.45852560034745   -0.18717736042331
C        66.51967679473424    0.04176000524737   -0.02101172461920
C        65.86496771198414   -1.19283077306606    0.12526173742143
C        66.53845848580255   -2.45084984903087    0.27424761179043
C        65.57336368558606   -3.39568048300455    0.38650883845892
C        64.31460712048933   -2.71199633704118    0.30534182947681
N        64.52332543304688   -1.37433354758891    0.14681761153050
C        63.07916396255468   -3.33255174194977    0.37854965069678
C        61.84385139796100   -2.71185562863969    0.30448751797576
N        61.63573928194545   -1.37410116611590    0.14614310149010
H        60.46891387414043   -4.45453064286042    0.50937667866072
H        58.55463598661449   -2.57483139255164    0.28588527503961
H        58.55551348734066    2.66034367254683   -0.33151191371517
H        60.47035859320279    4.53988878649812   -0.55099523758640
H        63.08041525648392    4.49133660415885   -0.54343298033991
H        65.69012116776440    4.53944645107402   -0.54828678038210
H        67.60463032314495    2.65952353461637   -0.32831387965090
H        67.60383555744450   -2.57609857827687    0.28925036157048
H        65.68866045002667   -4.45490033633798    0.51232874057135
H        63.07905414113479   -4.40635487341590    0.50566941709481
Zn       76.53469005796566    0.04957233443904   -0.01775954073534
C        74.04363133640591   -3.39101471109285    0.38536398500223
C        73.07785034528949   -2.44717397907445    0.27084117901814
C        73.75043580227346   -1.18854062340420    0.12269450115240
C        73.09472170924734    0.04526411676214   -0.02542397805643
C        73.74807941426924    1.28064400656778   -0.17094599473223
C        73.07318608326491    2.53763295116263   -0.32210976488907
C        74.03717509471586    3.48396655234843   -0.43120164044114
C        75.29674533508049    2.80210904505743   -0.34629439971262
N        75.08951198636989    1.46409012607839   -0.18867593672054
C        76.53145987952426    3.42453861309502   -0.41535741090042
C        77.76748486458477    2.80554345138670   -0.33889018580268
C        79.02583038968777    3.49050227475084   -0.41660409212853
C        79.99155073564113    2.54620204368210   -0.30490656890950
C        79.31882595182776    1.28743396942567   -0.15896811788162
N        77.97706276365381    1.46785637357586   -0.18185438756861
C        79.97401129272366    0.05309031344040   -0.01458379509018
C        79.32066731165054   -1.18224684349246    0.13115769006143
C        79.99587932765741   -2.43924049578091    0.28105527515423
C        79.03204663266087   -3.38535930429496    0.39315703095702
C        77.77243337427480   -2.70339552723167    0.31084257907128
N        77.97935094678492   -1.36550466082672    0.15200464718167
C        76.53769345669083   -3.32535371364368    0.38305508202472
C        75.30185314604856   -2.70604053527581    0.30693111389709
N        75.09217718614023   -1.36865512196205    0.14729402491463
H        73.92918592399458   -4.45038382348719    0.51100402779415
H        72.01255630037157   -2.57354295817078    0.28319346168475
H        72.00763607694525    2.66131091230373   -0.34033907770109
H        73.92059241178238    4.54310953279705   -0.55726935687135
H        76.53032261480392    4.49843625212391   -0.54172302529262
H        79.14059631204964    4.55013562314367   -0.54009841432389
H        81.05689598813055    2.67235775705337   -0.31781639073582
H        81.06143982104460   -2.56303472784917    0.29665929082206
H        79.14890767645664   -4.44441150433885    0.51940080168563
H        76.53869552440510   -4.39906623760947    0.51086806673435
Zn       89.98672275100948    0.00967185742361   -0.02111497729503
C        87.48082331142719   -3.42247232128138    0.36023413560537
C        86.51949313503771   -2.47304609856303    0.25497157742736
C        87.19800769030485   -1.21674889153656    0.11442950016742
C        86.54840493570201    0.02115319352058   -0.02461658555168
C        87.20686364968223    1.25441543149292   -0.16426589018578
C        86.53683911583548    2.51489758513692   -0.30819736455141
C        87.50453658873010    3.45782376617928   -0.41313110520902
C        88.76135469574930    2.77047609350667   -0.33252560809000
N        88.54889745208331    1.43239587434545   -0.18222142675276
C        89.99845760222448    3.38838722813139   -0.39702194520362
C        91.23149602458064    2.76337370683707   -0.32133693050093
C        92.49306090300324    3.44315675743523   -0.39122029871477
C        93.45416275529378    2.49395226450469   -0.28213395700263
C        92.77531293938658    1.23737547757548   -0.14607122693262
N        91.43443297648396    1.42391914821500   -0.17179839868619
C        93.42455768869185   -0.00109081657351   -0.01296358679054
C        92.76679703381797   -1.23537714554384    0.11656469366237
C        93.43721051070226   -2.49643268108719    0.25531400774126
C        92.46961177211337   -3.43963913206736    0.35877475634570
C        91.21258722864850   -2.75191914785627    0.28267136288937
N        91.42468632610208   -1.41363232152530    0.13511386731720
C        89.97524590071737   -3.36911704461076    0.35214573073169
C        88.74230221093879   -2.74321077410471    0.28385021331795
N        88.53889783898804   -1.40360868664921    0.13483271415599
H        87.36145430837679   -4.48218206893033    0.47837943325245
H        85.45358125171951   -2.59411663952031    0.26884115393013
H        85.47179164286601    2.64285517490368   -0.32481404495073
H        87.39229578640489    4.51807694122729   -0.53343631618314
H        90.00208672725192    4.46292089282920   -0.51756204030233
H        92.61275450939921    4.50300430583742   -0.50823608243663
H        94.52010707811078    2.61522432823973   -0.29183533607704
H        94.50232703689362   -2.62420316309535    0.27094916852802
H        92.58231867629698   -4.50018352429164    0.47618671799369
H        89.97159205080824   -4.44379809798550    0.47144623359061
