201
 energy: -353.117606071285 gnorm: 0.000926443230 xtb: 6.4.1 (bd6e46d)
Zn       23.84198932774424   -0.00058377567913   -0.01197747581261
C        26.38015332071754   -3.43202222658547    0.02089063087237
C        27.33210645199615   -2.46779837157693    0.02195135683107
C        26.64111756997240   -1.20995881870555    0.01053829665666
C        27.27775827756166    0.04223964723078    0.00641948489122
C        26.61002856581474    1.27794331083618   -0.00098807427769
C        27.26980821918614    2.55242129560315   -0.00035308943130
C        26.29439030633042    3.49290781059402   -0.00582670848470
C        25.04244981669719    2.79059670990108   -0.01051640025146
N        25.26644724187516    1.44626319131165   -0.00747859424573
C        23.80041883026298    3.40297678569523   -0.01701337302075
C        22.57448903001159    2.75860537285177   -0.02253774970350
C        21.30016385229896    3.42459621219187   -0.02936201499873
C        20.35478267832642    2.45620991238389   -0.03506582357375
C        21.05082849798212    1.19762155153083   -0.03147141592634
N        22.39240927915723    1.41202207741892   -0.02338787465594
C        20.43418880807234   -0.04292940436900   -0.03603369580454
C        21.08142156280860   -1.26783103979820   -0.03044971658813
C        20.41691338957310   -2.54327789452692   -0.03369862330731
C        21.38606295832764   -3.48785209652689   -0.02300998485110
C        22.64338094272979   -2.79038338841485   -0.01354287247638
N        22.42785442770248   -1.44874138600805   -0.01889671957892
C        23.88492686772226   -3.40395170260114    0.00002063905751
C        25.11134068256124   -2.76086091122602    0.00808952150935
N        25.30202372912114   -1.41135447283346    0.00285064984090
H        26.51022037892057   -4.49705422977369    0.02774863136439
H        28.39910056701869   -2.58029750184739    0.03002407513305
H        28.33365874994838    2.69116161524100    0.00481331702359
H        26.39840262549867    4.56074298324234   -0.00639365507002
H        23.78786341931821    4.48409807926684   -0.01808804665869
H        21.16644257607451    4.48940747694133   -0.02965306315500
H        19.28709091121174    2.56442772033127   -0.04087282671429
H        19.35327395849265   -0.05633076877822   -0.04391784059861
H        19.35229174343696   -2.67801137290620   -0.04277852435183
H        21.27889147586425   -4.55563996895808   -0.02152580302417
H        23.89929104872544   -4.48504438092651    0.00430319228927
Zn       87.85336975345012    0.03023887540874   -0.00887621196320
C        85.32231065412941    3.40496574621346    0.64144146622722
C        84.36839594207531    2.45890277916507    0.46562558493101
C        85.05681038206501    1.22220689116980    0.22805750262397
C        84.41741218932192   -0.00738304430707   -0.00100692645020
C        85.08223130919639   -1.22314816553490   -0.23048369417211
C        84.41985091167898   -2.47483043032167   -0.46317125683242
C        85.39332305096977   -3.40030876237336   -0.64122451387377
C        86.64670813394714   -2.71165569774707   -0.51718227522317
N        86.42554368689173   -1.39019082482901   -0.26763064176903
C        87.88746531640173   -3.31497684830497   -0.63651962697988
C        89.11478253651603   -2.68312473788199   -0.52460730932854
C        90.38766905700416   -3.33912867295088   -0.65460962639031
C        91.33513474793456   -2.38816546983964   -0.48275184560123
C        90.64182169438314   -1.15027095138120   -0.24738483491470
N        89.29983529369655   -1.35965393236090   -0.27825321711838
C        91.26114926681390    0.06860530447588   -0.02355198519042
C        90.61654726314032    1.27301717958278    0.20687752744724
C        91.28379561488723    2.52591844722106    0.43810063115147
C        90.31667787687526    3.45490314076362    0.62033050891273
C        89.05781976486863    2.77056690870352    0.50024404344027
N        89.27047729194231    1.45199607426515    0.25002675347261
C        87.81758226448316    3.37463560314031    0.62258252437746
C        86.58977906696930    2.74402048934233    0.51026112854290
N        86.39632081283848    1.41842780511344    0.25989283066249
H        85.19444593110470    4.45142886085681    0.84091383093202
H        83.30159737110382    2.57064385856124    0.49179720419284
H        83.35556840727128   -2.60960205005780   -0.48430882591113
H        85.28745093191148   -4.44970597923043   -0.83859868517038
H        87.89764048570518   -4.37755813858709   -0.83606887130071
H        90.51909051332922   -4.38600477882266   -0.85077334731424
H        92.40257104876775   -2.49563554889939   -0.50917172563474
H        92.34209448458432    0.08087583951717   -0.02867223118785
H        92.34871760820776    2.65748399418110    0.45511552047082
H        90.42616396294082    4.50410180405026    0.81741201422409
H        87.80552446513143    4.43690838971125    0.82361460888287
C        28.67529533671917    0.05905887135784    0.00860379250821
C        29.89519537112762    0.06345403116454    0.01046104627412
C        31.23137269317608    0.07077187868224    0.00777070121716
C        32.45591373078021    0.07153937576965    0.00653887301119
C        33.79191366889430    0.07119521810984    0.00306510593820
C        35.01193592289109    0.06974092636634   -0.00377839980373
C        44.67889051556276    0.03641496320899   -0.02265092593910
C        45.89910319097107    0.03472460405790   -0.02143942523548
C        47.23464908280530    0.03229160214460   -0.02181118284433
C        48.45922434201002    0.03199151589376   -0.02133561224658
C        49.79475453975291    0.03212964868278   -0.02093359296226
C        51.01495405931723    0.03408847671106   -0.02137341231122
C        60.68027809469696    0.04254878818508   -0.02330818426848
C        61.90047783911616    0.04301130284105   -0.02128104794747
C        63.23600497470130    0.04410711336125   -0.02196549209884
C        64.46049866124925    0.04355936640720   -0.02274168846322
C        65.79605044642254    0.04069349825603   -0.02357615094543
C        67.01627771663655    0.03897396115037   -0.02199838495352
C        76.68314488291962   -0.01126487106619   -0.01775573673277
C        77.90319525957155   -0.01950877170486   -0.01559080264090
C        79.23925652796393   -0.02543950572169   -0.01113056461671
C        80.46363088951084   -0.02685122015744   -0.01056186893276
C        81.79980987281598   -0.02776617485829   -0.00309050876508
C        83.01971442056333   -0.02062293019915   -0.00277998690069
Zn       39.84529328510789    0.05245584396155   -0.01713762123250
C        37.34057186986122   -3.37694616131538    0.39367063821928
C        36.37936564648408   -2.42756693835636    0.28652496898910
C        37.05824389048269   -1.17271250855783    0.13541342471172
C        36.40885449231327    0.06486879559226   -0.00857260742090
C        37.06635629329752    1.29741583965060   -0.15740264520274
C        36.39572422844986    2.55677254376217   -0.30699896509144
C        37.36309170330944    3.49904985395232   -0.42097560892284
C        38.62006804324141    2.81222323882660   -0.34032998021055
N        38.40832131651313    1.47521173016774   -0.18073758436045
C        39.85694877661695    3.42962873656539   -0.41407645980713
C        41.08978386641955    2.80432492232038   -0.34156150052748
C        42.35140599099648    3.48272444835186   -0.42244505530474
C        43.31239928331689    2.53349879761072   -0.31261839384606
C        42.63314262300143    1.27840325789466   -0.16498783929940
N        41.29254721987392    1.46545979547332   -0.18503816856143
C        43.28235077395317    0.04066617198565   -0.02193702024112
C        42.62511645820570   -1.19276567818488    0.12141469989227
C        43.29613302269298   -2.45275630448122    0.26505183546529
C        42.32892527033690   -3.39551497814427    0.37605008915512
C        41.07175493278258   -2.70828465118277    0.30009496828413
N        41.28335914150414   -1.37062020749285    0.14497019034252
C        39.83485339554012   -3.32506201931709    0.37619561889287
C        38.60195277830642   -2.69894350616979    0.30835008701148
N        38.39900331258486   -1.36016800429866    0.15197117523203
H        37.22090175190819   -4.43577160137264    0.51881023751667
H        35.31351685172533   -2.54853715583206    0.30574720545317
H        35.33067051782919    2.68513000284278   -0.32158173391666
H        37.25029108246671    4.55846762958020   -0.54781662409108
H        39.86023757535331    4.50346762450468   -0.54048543159333
H        42.47141337219587    4.54167077681784   -0.54651888334340
H        44.37834442303678    2.65456998562581   -0.32832094446242
H        44.36124723664147   -2.58117625680939    0.27727958984068
H        42.44192402618443   -4.45546623429784    0.49791879235196
H        39.83127221865928   -4.39908478380217    0.50108856438932
Zn       55.84750234448377    0.03817856236540   -0.02063375209830
C        53.35654112472930   -3.40295072497146    0.38166566715131
C        52.39163101214076   -2.45789911063841    0.26991226848651
C        53.06568526315184   -1.19990867733518    0.12339082029893
C        52.41148645201530    0.03509421583096   -0.02076474613926
C        53.06345123836944    1.27129926510397   -0.16452390910082
C        52.38703960096789    2.52811511425314   -0.31042410548417
C        53.35017893473304    3.47500812542013   -0.42186664416120
C        54.61023919655535    2.79347425146913   -0.34365744631373
N        54.40445677447494    1.45510548960722   -0.18685305667327
C        55.84448327292507    3.41580113622520   -0.41901670591521
C        57.07987586328939    2.79526743639429   -0.34787996815593
C        58.33866849046573    3.47853852142375   -0.43092175243300
C        59.30352424227723    2.53340228933680   -0.31957343524907
C        58.62944757666742    1.27595603448850   -0.16871995572236
N        57.28813525967939    1.45754303278565   -0.18903746786246
C        59.28373095211260    0.04138048503314   -0.02144065777707
C        58.63186305036646   -1.19441009355393    0.12636244566537
C        59.30828090130697   -2.45078698729608    0.27629939931435
C        58.34511125748288   -3.39760688696556    0.38819902198554
C        57.08504073640960   -2.71653116725674    0.30609491976446
N        57.29084389859647   -1.37837966653512    0.14751252318012
C        55.85074301626639   -3.33923886370127    0.37794522955479
C        54.61532317908048   -2.71915239539938    0.30300693035793
N        54.40702945896318   -1.38122907952651    0.14581722310718
H        53.24093916991574   -4.46236546007004    0.50565959501823
H        51.32623545493171   -2.58359026092103    0.28347257560046
H        51.32140016730016    2.65187225270758   -0.32388398730662
H        53.23261386555906    4.53430024553569   -0.54532593377653
H        55.84347575276184    4.48961504008007   -0.54567236043551
H        58.45430294129617    4.53769729876492   -0.55728493112225
H        60.36892548007701    2.65875293412774   -0.33577092582861
H        60.37392364116452   -2.57429493727796    0.29181427401074
H        58.46266428654938   -4.45658119155457    0.51421584682076
H        55.85172175204215   -4.41304715505819    0.50467981843224
Zn       71.84947817338683    0.01410278913149   -0.01984263931069
C        69.33709935261575   -3.41087970212428    0.38838256527538
C        68.37792906409700   -2.45993458804406    0.27745925786699
C        69.05956927709919   -1.20650514393404    0.12706940238231
C        68.41284119564015    0.03195898972213   -0.02071649709169
C        69.07250601746327    1.26364805081198   -0.16761067829764
C        68.40388412065788    2.52412948060921   -0.31813609456982
C        69.37289296769592    3.46525465021121   -0.42734659814342
C        70.62874756384149    2.77658019210441   -0.34327919584200
N        70.41462245658882    1.43950661793381   -0.18650349245425
C        71.86685350323819    3.39201293803676   -0.41038860053837
C        73.09849219753032    2.76448160577670   -0.33331543158795
C        74.36128305704624    3.44150237206657   -0.40596420531227
C        75.32061534517230    2.49060750564656   -0.29570289379294
C        74.63925433186820    1.23573758176203   -0.15635059792633
N        73.29881895217909    1.42491223671707   -0.18077020689750
C        75.28611380286775   -0.00386543750763   -0.01998835497737
C        74.62625812352420   -1.23666093749148    0.11600730700107
C        75.29447086856513   -2.49854474693920    0.25544631673639
C        74.32529431709924   -3.43925717552788    0.36674577890713
C        73.06969520618955   -2.74902398352426    0.29449959981215
N        73.28397890868179   -1.41172967431818    0.14097831665121
C        71.83162962963728   -3.36351594633821    0.37263458072560
C        70.60003415658475   -2.73526306636891    0.30481744866387
N        70.39981534679303   -1.39614373605984    0.14708316424309
H        69.21505115718973   -4.46934505686343    0.51447687298420
H        67.31176744587825   -2.57891468549472    0.29384679167224
H        67.33899128216473    2.65397464066051   -0.33552478344270
H        69.26187152695253    4.52500502229588   -0.55280100448628
H        71.87262855574652    4.46608772616910   -0.53472357724713
H        74.48308138892237    4.50076706977784   -0.52524285346914
H        76.38671794598416    2.61042147049863   -0.30622664136354
H        76.35924951197035   -2.62956827349197    0.26515649022719
H        74.43592783918223   -4.49971662823159    0.48655878829119
H        71.82620789360951   -4.43745811777451    0.49810287682562
