115
 energy: -211.528881352974 gnorm: 0.000383641295 xtb: 6.4.1 (bd6e46d)
Ni       14.48974262258186   -0.00048548211975   -0.00529865878662
C        16.99306529001277   -3.40939636204688    0.04647157893571
C        17.94375075901080   -2.44797041230493    0.04052590502068
C        17.25312847365987   -1.19369286694881    0.01934002163980
C        17.91815573359736    0.03611549643596    0.00592201928042
C        17.22749565911406    1.25160445213230   -0.00282398655940
C        17.89138076503832    2.52039674245649   -0.00518867514574
C        16.92047344798172    3.46143421175679    0.00108735490729
C        15.67131606883532    2.76063068016148    0.00464192397715
N        15.87460322865000    1.40631725817163    0.00093074111788
C        14.44955914390423    3.40129149176508    0.01033493783941
C        13.24311892902036    2.73239360355295    0.00109655927963
C        11.97443382075072    3.40242226071102   -0.00342493564713
C        11.02935123593897    2.43796557987746   -0.02594386680624
C        11.72475792600220    1.18273304410296   -0.03266756041791
N        13.07635968503064    1.37674671099642   -0.01449071137070
C        11.07944951660834   -0.03685028722167   -0.05455597447176
C        11.75072452954559   -1.24252087831300   -0.04959505170999
C        11.08244315155256   -2.51242249350605   -0.06284385262497
C        12.04778736362808   -3.45657929149862   -0.03943931450838
C        13.30162747514806   -2.75954850460536   -0.01435838242132
N        13.10597889624324   -1.40771580273632   -0.02241962126745
C        14.52184655360102   -3.40234651889257    0.01398328556486
C        15.72942845010395   -2.73549501801511    0.02665565750526
N        15.90388387850591   -1.37720463129694    0.01271616555643
H        17.11292161242761   -4.47519199904052    0.06128623357158
H        19.01123368115442   -2.55177741417935    0.04972016177796
H        18.95653369615312    2.64688580583920   -0.00940314067408
H        17.01766217456835    4.52970265595041    0.00239025139770
H        14.43826051416286    4.48050749421753    0.01814909690571
H        11.85184988336372    4.46818526729194    0.00794402462526
H         9.96131364646824    2.53889504095058   -0.03652152921801
H        10.00050902501639   -0.04828970034217   -0.07256784978425
H        10.01696968100641   -2.63618027964496   -0.08570195976053
H        11.94806480031340   -4.52482597973349   -0.03945722236754
H        14.53367260681274   -4.48154392218733    0.02284739098711
Ni       41.36152839262907    0.03066351186646   -0.00318494158167
C        38.86833095474049    3.38904765871131    0.62815025605602
C        37.91460829456194    2.44734761394455    0.44981715624436
C        38.60138911428612    1.21217437113156    0.21851649150764
C        37.93303836701309    0.00351502698323    0.00202124792960
C        38.62014547590773   -1.19581952454524   -0.20753136761538
C        37.95223144109972   -2.44423662060157   -0.42223322551713
C        38.92015399979692   -3.37415418894041   -0.58514006141244
C        40.17151732886061   -2.68667701608965   -0.47102998587684
N        39.97256186724445   -1.35179383039942   -0.23878416382294
C        41.39115454563002   -3.32012925451894   -0.59092282696128
C        42.59959312958480   -2.66218741257605   -0.49204877779893
C        43.86605064230516   -3.32277485340063   -0.62698143518363
C        44.81412602726726   -2.37264690060518   -0.47774648800310
C        44.12275617907878   -1.13593227541363   -0.25025272910402
N        42.77060734043322   -1.32667717782365   -0.26193439729179
C        44.77191004356131    0.06454022501443   -0.04608349439304
C        44.10444323253869    1.25060081808626    0.18197377572919
C        44.77684010119402    2.49865908363942    0.40479562150093
C        43.81440514530102    3.42663575872472    0.59564368238550
C        42.55819061139751    2.74211202230924    0.48608434299073
N        42.74960901567577    1.41339122708657    0.23375357738405
C        41.33982605674375    3.37539130376785    0.61842824061497
C        40.12996870678111    2.72285499354397    0.50178263883476
N        39.95131500609887    1.38834119024254    0.25144328401133
H        38.75181422011314    4.43682417885931    0.82608390344894
H        36.84740346008888    2.55265057146588    0.47039772878669
H        36.88667831421146   -2.56591010768747   -0.44132163873860
H        38.81956023254409   -4.42647050086530   -0.76711804778214
H        41.39903931636800   -4.38357683000737   -0.77504144894696
H        43.98520397782180   -4.37285454459214   -0.81165917326953
H        45.88176133964510   -2.47236087513498   -0.51250150807339
H        45.85088866444226    0.07567284454847   -0.06184673441442
H        45.84281514661399    2.62007573354558    0.41009509121246
H        43.91755872406417    4.47648134875414    0.79128788403084
H        41.33140452543989    4.43584128119557    0.81910956329745
C        19.31586951899968    0.04914155064354    0.00521956623249
C        20.53356636742298    0.05664931147329    0.00243326345742
C        21.87602123501619    0.05855906364331   -0.00000750196683
C        23.09384816811377    0.05647427561578   -0.00245731617003
C        32.75706902660504   -0.00921696853353   -0.01167117607046
C        33.97482095523428   -0.01248767249395   -0.00870187394433
C        35.31744604676209   -0.00982322823621   -0.00467454827252
C        36.53507088731851   -0.00650580079405   -0.00149444389927
Ni       27.92534550985228    0.02259460459529   -0.01454438873092
C        25.43114241469247   -3.37712551686498    0.33330969806738
C        24.47634553264308   -2.42477181129537    0.23319685560049
C        25.16183573638818   -1.17376646699693    0.11042808081696
C        24.49103637723197    0.04778408385116   -0.00617973382498
C        25.17856993634049    1.25917636576438   -0.12817134593717
C        24.51069531865163    2.51977497454376   -0.25058261971916
C        25.47875390131782    3.45762962534149   -0.35988474584955
C        26.72926630706656    2.76252401508575   -0.30242730810996
N        26.53050071210919    1.41523420766274   -0.15769327068654
C        27.94890343987657    3.40033570628379   -0.39015378883958
C        29.15938476812673    2.74220525740629   -0.33039122943035
C        30.41956601495739    3.41606843327927   -0.42052312060404
C        31.37439434622804    2.46462873913317   -0.31266724883701
C        30.68888460935183    1.21697459523109   -0.15844856129667
N        29.33925387341392    1.39368600343097   -0.17264351450824
C        31.35965049736340   -0.00152150001855   -0.01439638689821
C        30.67231342271931   -1.21089305391843    0.12675865986455
C        31.34024050883422   -2.46839736373288    0.27723798969178
C        30.37216319142766   -3.40695438318283    0.38015965753310
C        29.12157578739631   -2.71520202594767    0.29222940524276
N        29.32028697031068   -1.36880144444358    0.13942227766401
C        27.90184455419348   -3.35606603003304    0.35169863788773
C        26.69131730832085   -2.70027701784603    0.27097333246297
N        26.51144861827944   -1.34968370468319    0.13171534441908
H        25.31588892271473   -4.43822639438837    0.43982841899774
H        23.40921120282469   -2.53277451393865    0.23967561925128
H        23.44527610992766    2.64326216610772   -0.25122015541716
H        25.37849020403531    4.51989681033096   -0.46958195552665
H        27.95660438056521    4.47290791134376   -0.51075867522206
H        30.53479466623635    4.47478382218791   -0.54871937443889
H        32.44149205130208    2.57105408204184   -0.33361985575412
H        32.40573797529733   -2.58971910774759    0.29839629507368
H        30.47240757599524   -4.46768801854818    0.50408560101966
H        27.89415772142391   -4.42909104433491    0.46828073844413
