148
 energy: -271.851842469760 gnorm: 0.000409961613 xtb: 6.4.1 (bd6e46d)
Ni       25.57674736865381    0.01435160054098    0.00410570038232
C        28.07145110790268   -3.02352158342674    1.55694949023981
C        29.02328311803521   -2.14819016226791    1.16220314322126
C        28.33758262055471   -1.04360436274621    0.56170043927031
C        29.00360056093496    0.05408041222861    0.01012272009384
C        28.31316210012548    1.14963415768138   -0.51435082334272
C        28.97476183960259    2.29280738517335   -1.06771453518816
C        28.00544827885672    3.17315554549491   -1.40436060534483
C        26.75755319062236    2.55503221083746   -1.06946593359463
N        26.96050210729861    1.31017151130418   -0.53681683567525
C        25.53713450403880    3.16753219574254   -1.26728252225579
C        24.33060180176285    2.55208779942524   -1.00562641304054
C        23.06144525485420    3.17483589986368   -1.25047314039274
C        22.11734968683355    2.25801722516261   -0.94678357638951
C        22.81351806182375    1.08233353699945   -0.50821929014306
N        24.16448058067376    1.27851438109806   -0.54044845136925
C        22.17089558479504   -0.07646930963065   -0.12244149971021
C        22.84312136281099   -1.18926303910851    0.34044947083416
C        22.17755384381993   -2.38383061474711    0.77557115836166
C        23.13995065182799   -3.22387844968406    1.21394930652511
C        24.38999279299713   -2.54215917531913    1.03753154823233
N        24.19519607439207   -1.30411548963789    0.49440815105776
C        25.60531051850823   -3.08742294876638    1.39647927968486
C        26.81095991117513   -2.44777870087228    1.19475024162023
N        26.98843184708468   -1.22699866907603    0.60053357483428
H        28.18894947322290   -3.97127765514356    2.04535490357236
H        30.08812544537103   -2.21484189426646    1.26949027225643
H        30.03731540738722    2.38252164251729   -1.18020743829396
H        28.10295820922510    4.14703105400990   -1.84326200668139
H        25.52674860632975    4.17134831479260   -1.66364291296433
H        22.93768241617806    4.17718058719762   -1.61245786258479
H        21.04946592242321    2.34424589101523   -1.00326728813589
H        21.09336630186263   -0.10882861396197   -0.17148341641091
H        21.11531725580321   -2.53114763387828    0.74479511980331
H        23.04036705261196   -4.21198294007138    1.61986354682427
H        25.61527937541356   -4.06721801577648    1.84897471474184
Ni       58.20214145256874    0.03641986199957   -0.00421181821996
C        55.72210088664630    3.16007497049037    1.39587404001104
C        54.76602688018145    2.27149259044412    1.04340920906359
C        55.44626245282034    1.13469341289693    0.49964009133817
C        54.77399568448018    0.01631119628888   -0.00029564520220
C        55.45837656056293   -1.10227691753526   -0.48269057807205
C        54.79045676558477   -2.26165446574205   -0.99289691933545
C        55.75529818005835   -3.15548241830866   -1.30583193464881
C        57.00675296503249   -2.53046095183424   -0.99818401398947
N        56.81040440332721   -1.26834825846137   -0.50515920779418
C        58.22388997190257   -3.15291161716361   -1.18445599093619
C        59.43396931743314   -2.53814219198720   -0.93845428819343
C        60.69918734208054   -3.17703345208572   -1.16104850106898
C        61.64929126876968   -2.26410611132743   -0.86465819887557
C        60.96047291845227   -1.07341123287252   -0.45601115143555
N        59.60797280505587   -1.25651818952008   -0.49910238733086
C        61.61120379969039    0.08571865503176   -0.08541651576194
C        60.94555300150919    1.21951731104965    0.33385804602486
C        61.61909721097950    2.42001573240138    0.73930797649317
C        60.65975238740437    3.29033227645010    1.12165091786453
C        59.40406391819783    2.61932221370099    0.94447969498931
N        59.59240177001290    1.35797644441773    0.45521449474412
C        58.18965538196760    3.19473508492298    1.25599768161011
C        56.97994843628110    2.55850387276278    1.06843443633898
N        56.79651099813967    1.31164431358452    0.53299866973142
H        55.60901927235368    4.13170918288293    1.83599287464391
H        53.70147604692463    2.34990400091205    1.14484955610671
H        53.72718851959689   -2.35168884286570   -1.09760162982583
H        55.65258887256464   -4.14337424244647   -1.71088986260845
H        58.22843296398362   -4.16691445830395   -1.55410120721113
H        60.81636265055326   -4.18707671623465   -1.50325575694535
H        62.71676629189403   -2.36164890933097   -0.90897818114894
H        62.68975350705993    0.10340996750580   -0.11635254895466
H        62.68384296198160    2.55102818357963    0.72725840675925
H        60.76489136957829    4.29215223934090    1.49089168142799
H        58.18419837949072    4.19422458758039    1.66322935653848
C        30.40579916904303    0.06125780952820   -0.00289896339342
C        31.61817852675308    0.06007992842927   -0.00988466752518
C        41.28301332606225    0.02628936782229   -0.02422488496256
C        42.49586836764228    0.02380845001273   -0.02099225504502
C        52.15923842305850    0.01014833245562   -0.01119291736970
C        53.37170055093613    0.01255653624569   -0.00654378263096
Ni       36.45052762115319    0.04212491771157   -0.03360397920897
C        33.97792942940275   -3.38095987678464    0.02986730906736
C        33.02025016375772   -2.43012447574434   -0.05746290465832
C        33.69528960259953   -1.16766286967165   -0.02587869966012
C        33.01990055887914    0.05599373166584   -0.01988992009461
C        33.70504049467387    1.27406455455623   -0.02389829308007
C        33.04048056254308    2.54199418840557    0.00641259463289
C        34.00454094375235    3.48465266566978   -0.09733680260078
C        35.25138878499184    2.78567563716606   -0.18186104038170
N        35.05466236691227    1.43250779345925   -0.11124429704755
C        36.46254883298009    3.41942065332354   -0.36721953273598
C        37.66860779266971    2.75227885102213   -0.42202843906007
C        38.92047310424644    3.41222363194737   -0.64007481583500
C        39.87801984102109    2.46147351170602   -0.55116261448762
C        39.20478293001720    1.22922588425420   -0.27136287389795
N        37.85610969080393    1.41044946630406   -0.22273526285090
C        39.88165897847916    0.03022861692096   -0.02864348993616
C        39.19576708946757   -1.16490066161418    0.20756272971746
C        39.85965116089275   -2.40324026526583    0.48267217993195
C        38.89561200259327   -3.34838712804263    0.56057697614409
C        37.64895378847415   -2.67864248655864    0.34277151118935
N        37.84607969544844   -1.33687850036005    0.15264316507838
C        36.43803695321640   -3.33661103125794    0.28379389822787
C        35.23098758241519   -2.69239733503634    0.10809501496551
N        35.04434418024719   -1.33723947145405    0.04779463776326
H        33.86844125461996   -4.44792774421273    0.04262074413702
H        31.95796651072084   -2.54749299711231   -0.14492825860412
H        31.98012264475355    2.66817808877032    0.10357947282429
H        33.90330370568386    4.55233917708536   -0.11650383074280
H        36.46688616559803    4.49344190049827   -0.47409451523429
H        39.02911126166123    4.46173190876535   -0.83314863468009
H        40.93910277140307    2.55881171493111   -0.66999484091038
H        40.91959312463553   -2.50837920979084    0.60490682475358
H        38.99665500065266   -4.39986481257070    0.74700220137716
H        36.43454147298393   -4.41135018532041    0.38328275027310
Ni       47.32743757314056    0.01671050865053   -0.01946210989158
C        44.86749708200655   -3.36416710027286   -0.59592898252362
C        43.90794973547492   -2.41396205560487   -0.52391527767990
C        44.57723022978919   -1.17793576865828   -0.25140169753304
C        43.89719552571421    0.02142937426461   -0.01936195234952
C        44.58047002684063    1.21911575494006    0.21191573033541
C        43.91459437078646    2.45764858657582    0.48136392986773
C        44.87660198278458    3.40574223440538    0.54870135843527
C        46.12403894359094    2.73775974019438    0.32968477210774
N        45.92956273634877    1.39394373000507    0.15177644088483
C        47.33234289450327    3.39873525139313    0.25213653300832
C        48.53957560094405    2.75577924963823    0.07261888197071
C        49.78963565583652    3.44625921207473   -0.03189182928391
C        50.74921097292783    2.49661632576489   -0.11150917073667
C        50.07869338054281    1.23303696239243   -0.04735635930228
N        48.72983825772958    1.40030288197001    0.03489928949314
C        50.75750420844383    0.01161709530523   -0.01394288003283
C        50.07478081910156   -1.20767133380262    0.01632577181242
C        50.74117756914460   -2.47335039654953    0.08057291183329
C        49.77927435999661   -3.42002441985822   -0.00588407945277
C        48.53170659022978   -2.72555916966476   -0.11371369241979
N        48.72573350232162   -1.37080672809572   -0.07165322366358
C        47.32320999303494   -3.36461438288879   -0.29890248476652
C        46.11677735552065   -2.70017704062204   -0.37531935540487
N        45.92584816445105   -1.35642518982824   -0.19273605239566
H        44.76173531274117   -4.41575855390477   -0.77904262494553
H        42.84785027991178   -2.51403466980175   -0.64905639764400
H        42.85489587337833    2.56078937039857    0.60762389612252
H        44.77375724829015    4.45829771443547    0.72791923086591
H        47.33327071824612    4.47468897709583    0.33750335025680
H        49.89613694534181    4.51357141317389   -0.04063133947021
H        51.81003478049309    2.61529639187504   -0.21315422183828
H        51.80113346486477   -2.59529497605424    0.18699643080471
H        49.88256966294817   -4.48766560206312    0.00057020393318
H        47.32155356363361   -4.44020423971749   -0.38866935645226
