111
 energy: -197.999758698542 gnorm: 0.000573109955 xtb: 6.4.1 (bd6e46d)
Fe       16.85079203453895   -0.00359210279299   -0.01498798559307
C        19.31337865328197   -3.25220820773661    1.03110537565847
C        20.31441456525512   -2.37500389471265    0.78513882327177
C        19.68988496990325   -1.15795097794779    0.36608926584875
C        20.37917194217357   -0.00426399184797   -0.01763414966765
C        19.68919218043768    1.14772365821937   -0.40549302953855
C        20.31321834086124    2.36091923948100   -0.83632987814501
C        19.31175451186892    3.23446095186421   -1.09330364313680
C        18.08163972981918    2.54804731228853   -0.82235934937154
N        18.33297099063362    1.26519246870905   -0.41203027755626
C        16.84687939471233    3.15242629185101   -0.95732172071691
C        15.61322036584228    2.57343982027313   -0.73514718462378
C        14.37783302009638    3.28911887011858   -0.89636904337128
C        13.38113754139819    2.41662328010659   -0.62611621207217
C        14.01058652888834    1.16943485374202   -0.30148262332673
N        15.36919237020182    1.28013647687895   -0.36414904917777
C        13.34040458005359    0.00409482735713    0.01334146349046
C        14.01050155932199   -1.16531468623328    0.31273693330793
C        13.38085863418524   -2.41222100436504    0.63834137641574
C        14.37792873760102   -3.29239428871592    0.88084936997661
C        15.61374135227743   -2.58077316691490    0.70512275755143
N        15.36947759862318   -1.28300124234809    0.35024810673959
C        16.84793414153478   -3.16649945279564    0.90544313326821
C        18.08293174019893   -2.56291204777310    0.76899794263272
N        18.33370951609903   -1.27599343992773    0.37155860982926
H        19.38181296194775   -4.27072607883099    1.36141479442680
H        21.37312620846130   -2.51428478649830    0.88144985807712
H        21.37183701947343    2.50028048195034   -0.93376647134812
H        19.37971337643098    4.24905934879329   -1.43544480109215
H        16.84771567745527    4.18680800838940   -1.27089966795364
H        14.30699750760209    4.32163203106878   -1.18010001469351
H        12.32077072326223    2.57939608857331   -0.64105945777915
H        12.26147946896138    0.00675547335016    0.02328713400172
H        12.32012014144022   -2.56973770099636    0.67153427105665
H        14.30716729891329   -4.32730803811022    1.15578451555140
H        16.84886821354458   -4.20460688459117    1.20652884349151
Fe       39.00099934700538    0.04356250942687   -0.01216237266419
C        36.53747705675447    3.22927342906090    1.21409861321508
C        35.53641041073201    2.37334742727083    0.90217127822061
C        36.16226362891452    1.17952074517813    0.42222718037721
C        35.47356919153632    0.04745898348912   -0.02138825901328
C        36.16211697171339   -1.08408008003109   -0.46658722082270
C        35.53620829719031   -2.27373168560439   -0.95689231159221
C        36.53709525153801   -3.13033025564466   -1.26753873363168
C        37.76832619768697   -2.45676587409930   -0.96998352141442
N        37.51824685780561   -1.19937937203510   -0.48680216174790
C        39.00346575198027   -3.04611761159401   -1.15692235790692
C        40.23752527065344   -2.47597099670029   -0.91463624481416
C        41.47318154034817   -3.17324475295321   -1.14126402699897
C        42.47015928969642   -2.31858264513890   -0.81992979709572
C        41.84058581506774   -1.10117878042567   -0.39736436091037
N        40.48159786944261   -1.21129035524666   -0.45566943217264
C        42.51089068735438    0.03629935041649    0.00628769255703
C        41.84117514593918    1.17669444084462    0.40267466908226
C        42.47140731129655    2.39131426266033    0.83226313183410
C        41.47470087559967    3.25062300411323    1.14182909243741
C        40.23856040767090    2.55899085716739    0.90092719935812
N        40.48217355567080    1.29288691351414    0.44562132258525
C        39.00437621706328    3.13531644074359    1.12732979947485
C        37.76880340390317    2.55056787436149    0.92905303127157
N        37.51852684361069    1.29184940425240    0.44939567846770
H        36.46852975425002    4.22676568413733    1.60326665405710
H        34.47687925794408    2.51243205671636    0.99062664974294
H        34.47688351465150   -2.40917598232378   -1.05351936439149
H        36.46810697059925   -4.12526755448140   -1.66316452175936
H        39.00291954032264   -4.05894413639671   -1.53438209634898
H        41.54387592850193   -4.18220245079906   -1.49989441766458
H        43.53083325210024   -2.47533655836648   -0.85832309501338
H        43.58983946818184    0.03401809926098    0.01196488344458
H        43.53227361617855    2.54317672110983    0.88298964154576
H        41.54582895549000    4.25919213023456    1.50148607397623
H        39.00405831240606    4.14901752729915    1.50245343542789
C        21.78049266843179   -0.00304511751090   -0.01535208911999
C        22.99327053555369   -0.00850994408632   -0.01482629322933
C        32.85971135801748    0.03977777077474   -0.01380001182077
C        34.07230227218631    0.04600531971133   -0.01890197920790
Fe       27.92666399625059    0.01485348734226   -0.00009616349098
C        25.48212020248492   -3.40648304359320   -0.14936785178406
C        24.47568495083575   -2.50131231963391   -0.16149874749649
C        25.09143532302465   -1.21286543133040   -0.07353947815736
C        24.39418177699994   -0.00293871180092   -0.01015825891992
C        25.07870929215871    1.21402486712321    0.06023501373492
C        24.44946265636609    2.49562915771879    0.15184555881759
C        25.44689213356520    3.41081000693314    0.15358578958942
C        26.67925353540092    2.68197028498492    0.06859577607254
N        26.43358317253845    1.33460303293124    0.02724118965085
C        27.91042648411811    3.30454847096061    0.00830302852747
C        29.14798108429106    2.69558060613185   -0.05776371669358
C        30.37312949893015    3.43692704848538   -0.14030557048071
C        31.37932280263614    2.53143849084913   -0.14981260335660
C        30.76234605164943    1.24313949662082   -0.06629573553608
N        29.40666631168646    1.35037248461162   -0.02727621351219
C        31.45888915328882    0.03282113034961   -0.00721837066179
C        30.77534336862368   -1.18454515949376    0.05953614421214
C        31.40552284243378   -2.46606800175039    0.14867270711811
C        30.40823604824100   -3.38147922748097    0.15138951457662
C        29.17541511032355   -2.65296787502402    0.06816348748027
N        29.42059475148847   -1.30557550683335    0.02765030955636
C        27.94384575620054   -3.27458689605722    0.00685915250201
C        26.70668262873460   -2.66479489388154   -0.06183779464776
N        26.44729701007631   -1.31967330976894   -0.03093944230212
H        25.42076976363830   -4.47665342033835   -0.19578502838604
H        23.41878207109132   -2.66745993375144   -0.23203182880185
H        23.39057159040260    2.65085106384224    0.21633577452885
H        25.37444808248722    4.47992909174671    0.20744570343283
H        27.90456098811877    4.38546687731901    0.01242818338621
H        30.43518959655099    4.50711423037159   -0.18531832489815
H        32.43668536468630    2.69719673651370   -0.21532188949553
H        32.46480078952558   -2.62089400682352    0.21070603206057
H        30.48124427250271   -4.45061690681751    0.20438446507892
H        27.94870665736254   -4.35552639412342    0.01098489747577
