232
 energy: -420.364524581364 gnorm: 0.000577429677 xtb: 6.4.1 (bd6e46d)
Fe       35.71664346168078    0.00617824806086   -0.01332306133067
C        38.21956327971220   -3.37949519081738    0.02349737529941
C        39.21084866330477   -2.45756244605227    0.02393601757182
C        38.56933088614539   -1.17873076032694    0.00798828511687
C        39.24452269306971    0.04579964264499   -0.00267597992793
C        38.54221568613264    1.25484483505552   -0.01422120801863
C        39.15485165571624    2.54783249106309   -0.02127868406308
C        38.14305651686193    3.44724331822892   -0.02135566841294
C        36.91968870319480    2.69790743824855   -0.01554284242901
N        37.18497127551559    1.35356915042260   -0.01251676005616
C        35.67692771531405    3.30076658341223   -0.01132494812156
C        34.44951692333964    2.66797339506134   -0.01105989405331
C        33.20538100831230    3.38678948092414   -0.00931578498643
C        32.21872075996286    2.46260227574576   -0.01803592161205
C        32.86296426138099    1.18123264300205   -0.02402563362793
N        34.22059366079052    1.31993059100106   -0.01818310935693
C        32.20657545706537   -0.03334200750088   -0.03651233103614
C        32.89023240270956   -1.23283778803054   -0.03791714399350
C        32.27507131031581   -2.52839982928199   -0.04842761426758
C        33.28224775051977   -3.43016599156185   -0.03861700441216
C        34.50976271572541   -2.68351608399720   -0.02269966309199
N        34.25058325027461   -1.34094956067832   -0.02421828646575
C        35.75093821625724   -3.28859280838648   -0.00533506261575
C        36.97973834067457   -2.65793548194541    0.00699493336997
N        37.21474788330768   -1.30798214557651   -0.00043207512387
H        38.30042713100016   -4.44931499804820    0.03289277999608
H        40.27309618061636   -2.60621531089109    0.03354978761893
H        40.21357196343276    2.72029469019748   -0.02458562373633
H        38.19978473258647    4.51867823521648   -0.02511653574354
H        35.66490681491219    4.38158833670044   -0.00944590479794
H        33.12247787245867    4.45668678892878   -0.00294755406722
H        31.15615469398962    2.61106502650303   -0.02023100243578
H        31.12770528406719   -0.04550532699124   -0.04441333054529
H        31.21619851856528   -2.70073342034147   -0.06098749775806
H        33.22354630766351   -4.50168223081580   -0.04157312571223
H        35.76319667260379   -4.36940419496067   -0.00208303017903
Fe      103.89653584953250    0.04058900870534   -0.01167064639619
C       101.40303164334520    3.38061045611200    0.58586502161124
C       100.40914540337724    2.47536288764242    0.42679599201249
C       101.04714997515632    1.21448837518221    0.20223598959834
C       100.36880930452536    0.00954415022527   -0.00533424060149
C       101.06762687491904   -1.18347893354016   -0.21328262291665
C       100.45113807181423   -2.45577573531200   -0.43348921294575
C       101.46024746267265   -3.34378757742749   -0.59384242417837
C       102.68582927087945   -2.60823083433425   -0.47093493430069
N       102.42456037259122   -1.28358262415666   -0.23715789658174
C       103.92678468162592   -3.20430669823026   -0.58306536863533
C       105.15595482679163   -2.58320280974670   -0.48146434879985
C       106.39798715917551   -3.29316787885752   -0.61505705818065
C       107.38727988627510   -2.38472356612463   -0.46102767908685
C       106.74672909387463   -1.12183840586503   -0.23342601305647
N       105.38872005999484   -1.25608022277345   -0.24856709217616
C       107.40661680909353    0.07285402917081   -0.02501308846876
C       106.72645041893513    1.25500763585223    0.18960349974697
C       107.34543397391968    2.52915610988634    0.41415363757227
C       106.34084963305885    3.41885971347185    0.57817889008925
C       105.11107598826773    2.68636531031819    0.45304268661117
N       105.36635690350455    1.36414248644163    0.21587877575145
C       103.87158218395373    3.28493396924412    0.56396578061149
C       102.64090007623123    2.66700704976076    0.45705570084484
N       102.40215667213806    1.33838924496545    0.22180063156854
H       101.32515141979663    4.43415052711656    0.77325119450415
H        99.34728700815921    2.62425971011543    0.45595459285927
H        99.39192150123533   -2.62329366485357   -0.45867741097806
H       101.40032664418013   -4.39892592339831   -0.77890424201787
H       103.93567091824588   -4.26877497125983   -0.77052398900424
H       106.47778727170035   -4.34689485380376   -0.80184611960018
H       108.44938777515543   -2.53270165282755   -0.49418301861787
H       108.48552636544012    0.08288179537412   -0.02952332622753
H       108.40486239267337    2.69666533843772    0.43883693969342
H       106.40267217844729    4.47354474449110    0.76635971407361
H       103.86245408425093    4.34903777760729    0.75345741536209
C        40.64146549838078    0.05985174763073   -0.00105159729402
C        41.85933861996585    0.06764166255636   -0.00114408239184
C        43.20222129569350    0.07265313313736   -0.00151129853148
C        44.42025545927865    0.07312279570077   -0.00243183296803
C        54.27990232397111    0.04926802421607   -0.02394242532455
C        55.49811067497964    0.04865398065439   -0.02332341831913
C        56.84064636273209    0.04686739629673   -0.02260230067990
C        58.05887114294755    0.04659881119084   -0.02115293080600
C        67.91779331500277    0.03698063292813   -0.02001594092390
C        69.13598843244002    0.04508365030532   -0.01930279031812
C        70.47845683970696    0.04372500866970   -0.02015279629181
C        71.69665593548139    0.05018445172753   -0.02005086979717
C        81.55522216963388    0.04408796171417   -0.02080721940459
C        82.77341272705944    0.04228975147571   -0.02166704430192
C        84.11590291632244    0.03902427884431   -0.02107933604895
C        85.33408707375459    0.03499316148378   -0.02209813583688
C        95.19293538906227   -0.00854084576364   -0.00872236951936
C        96.41087808969885   -0.00952674393049   -0.00766261757053
C        97.75386193303011   -0.00627370477151   -0.00752359829889
C        98.97170415350105   -0.00165773779009   -0.00465967295264
Fe       49.35008385730740    0.06142929520013   -0.01372280801295
C        46.87540812120963   -3.32189586326899    0.39100835966291
C        45.87496564107374   -2.41552153747088    0.28813690780230
C        46.50399709150219   -1.13961776165067    0.13509513398166
C        45.81670615273335    0.07066049763474   -0.00437868395959
C        46.50940327140135    1.27742672444735   -0.14660213735450
C        45.88620392601517    2.55672888417905   -0.29502925668871
C        46.89079334706217    3.45800894809029   -0.40223152789361
C        48.11974261999394    2.72306795099976   -0.31870931081979
N        47.86516055860102    1.38560321105401   -0.16239357418997
C        49.35761617818644    3.33118043516359   -0.38955492711421
C        50.59276835048507    2.71757575913452   -0.31899685359586
C        51.82508509406895    3.44695598060681   -0.40114116402364
C        52.82548991113372    2.54042889744244   -0.29904186021130
C        52.19638888522181    1.26347625918199   -0.15558336967775
N        50.84123440156986    1.37834132525259   -0.16763727220279
C        52.88371194577940    0.05237904902484   -0.02255577075369
C        52.19084698202089   -1.15530167448477    0.11266999981999
C        52.81410553550280   -2.43558363230066    0.25196881684674
C        51.80958155363027   -3.33700934621367    0.35884689666154
C        50.58063450201227   -2.60119583021039    0.28387871749485
N        50.83519093331431   -1.26320593601080    0.13158972896778
C        49.34272434452291   -3.20823438634203    0.36239693107083
C        48.10768326019660   -2.59357397383736    0.29925605969677
N        47.85920580141404   -1.25488867870953    0.14335015941207
H        46.80509457620660   -4.38505341226768    0.51713093412854
H        44.81418882173155   -2.57287106991567    0.31153724182030
H        44.82613508905089    2.71964880689007   -0.31201452122061
H        46.82537197407255    4.52169382381321   -0.52637243311409
H        49.35995548424903    4.40505713762998   -0.51319429852524
H        51.89548573932997    4.51083442110816   -0.52083637715938
H        53.88628354323886    2.69841463321104   -0.31669820714424
H        53.87416670328463   -2.59906550243367    0.26369374024977
H        51.87508361843485   -4.40132428913702    0.47747680849910
H        49.34013758939344   -4.28205663672159    0.48651553032195
Fe       62.98842267630203    0.04128499348124   -0.02000099456170
C        60.51758906871364   -3.34560589639475    0.38056793234472
C        59.51614549499016   -2.44070355414333    0.27420072496118
C        60.14378785953992   -1.16395882266462    0.12285687302046
C        59.45505093502616    0.04514712767399   -0.02052084535760
C        60.14641648976231    1.25277981163653   -0.16369089354858
C        59.52158991644340    2.53081263057493   -0.31588104888407
C        60.52503189879403    3.43343878455159   -0.42282454849958
C        61.75485714642927    2.70059430405523   -0.33489153538323
N        61.50193967137278    1.36304936680640   -0.17623703587075
C        62.99198865463431    3.31021845093413   -0.40538317541331
C        64.22777957568397    2.69836959314868   -0.33108407054509
C        65.45928129184377    3.42895107844079   -0.41460752205873
C        66.46066930757870    2.52411170467997   -0.30721839336656
C        65.83290934055054    1.24698621677905   -0.15944076880799
N        64.47767342147726    1.36003886814887   -0.17399896419345
C        66.52168251508807    0.03744315602646   -0.01953795740900
C        65.83048772702044   -1.17056536748394    0.12049403246284
C        66.45536987551546   -2.44907020578431    0.26831729331197
C        65.45192744398561   -3.35184080293424    0.37412381214030
C        64.22205259167363   -2.61850743420090    0.29054442976355
N        64.47496410873211   -1.28062955312388    0.13465067228860
C        62.98486849109653   -3.22771934769266    0.36369706439455
C        61.74906267569490   -2.61540603691633    0.29337693085299
N        61.49906555802553   -1.27718860806374    0.13561816830458
H        60.44840130676872   -4.40886724625398    0.50628751272603
H        58.45553054075862   -2.59966494226563    0.29365728820741
H        58.46134946240304    2.69212763548001   -0.33546006203120
H        60.45828085900493    4.49676057364102   -0.54937090985948
H        62.99318284099694    4.38370095185178   -0.53236789607530
H        65.52855187444185    4.49233757048407   -0.53886395463800
H        67.52126697055229    2.68332995341174   -0.32412573035719
H        67.51567802415657   -2.61055606888637    0.28567962837086
H        65.51872151771397   -4.41560078940425    0.49728227509655
H        62.98365210958706   -4.30133899968175    0.48959753486465
Fe       76.62589922240628    0.04774378590223   -0.02021007534893
C        74.15654812697164   -3.34017361688385    0.38013076230125
C        73.15482155679497   -2.43560867242426    0.27370203352480
C        73.78209676290648   -1.15852910309335    0.12352934524928
C        73.09276731670307    0.05032851389030   -0.01928414374953
C        73.78334844862070    1.25834035079993   -0.16245845720626
C        73.15791345585740    2.53610830848350   -0.31425007737898
C        74.16096520201344    3.43910596427384   -0.42189705271728
C        75.39115430430044    2.70664056743603   -0.33536854357760
N        75.13883607787862    1.36903999220141   -0.17626004935140
C        76.62806876658429    3.31645971444982   -0.40824885788067
C        77.86411862720095    2.70486810449283   -0.33595748553417
C        79.09531117567239    3.43555285274373   -0.42310063393346
C        80.09709834247366    2.53112389996326   -0.31606192860833
C        79.46992643104306    1.25423889491657   -0.16390531059784
N        78.11461916994664    1.36688641660714   -0.17704717657463
C        80.15908192210546    0.04546704139131   -0.02012042890478
C        79.46831437081737   -1.16242773805875    0.12376130949175
C        80.09381391735225   -2.44015663657897    0.27572915258558
C        79.09083293219864   -3.34332111075979    0.38250034379746
C        77.86063501644809   -2.61105966422775    0.29492894468676
N        78.11286878976314   -1.27336956780327    0.13638384835985
C        76.62376925953180   -3.22107746773191    0.36635441541421
C        75.38777183812729   -2.60945755098416    0.29394895852490
N        75.13735932744008   -1.27126497794679    0.13637599777579
H        74.08774293199454   -4.40356100015025    0.50524454754072
H        72.09424376480324   -2.59492721772157    0.29262231645777
H        72.09758439975147    2.69705735223278   -0.33285025300370
H        74.09367290443176    4.50238167763217   -0.54827357680099
H        76.62881908415737    4.38987216609112   -0.53586452008168
H        79.16408032806956    4.49878213934140   -0.54936685161241
H        81.15763927682485    2.69049776438517   -0.33529340369336
H        81.15415266764447   -2.60090738682027    0.29546368304717
H        79.15815831453392   -4.40661512754036    0.50887102003864
H        76.62299979160308   -4.29461963032886    0.49285913517561
Fe       90.26345140321271    0.01249802834124   -0.01816553568922
C        87.78033713921859   -3.36662836979488    0.37328651667815
C        86.78222088727081   -2.45712082494530    0.27516299725059
C        87.41450852292105   -1.18278719062214    0.12253884961614
C        86.73023274369137    0.02871738774413   -0.02199432334153
C        87.42592184589220    1.23366051604000   -0.16631692915911
C        86.80570956328879    2.51350537955106   -0.32218062378686
C        87.81235971749578    3.41344044526741   -0.42107965755787
C        89.03952984451790    2.67722829536975   -0.32421963529762
N        88.78180521892071    1.33999467975253   -0.17068339295472
C        90.27880189228071    3.28420900096643   -0.37728716544195
C        91.51221799438760    2.66859542801832   -0.29473150230224
C        92.74630090436300    3.39691961960550   -0.35801013177399
C        93.74441805021735    2.48801596577619   -0.25504829772635
C        93.11215746999702    1.21061295680458   -0.12999466335794
N        91.75725208481386    1.32778661485562   -0.15236347002665
C        93.79636059975012   -0.00348121269206   -0.01088893214730
C        93.10096658570238   -1.21136186462740    0.10504794583509
C        93.72116891063116   -2.49448049315734    0.23172521605981
C        92.71445789699644   -3.39458192751698    0.32826966503266
C        91.48724267900793   -2.65512077581241    0.26035391368133
N        91.74494377821125   -1.31637646049555    0.12113276505953
C        90.24799973839875   -3.25978246375659    0.33656258239781
C        89.01444011800261   -2.64150526093877    0.28075397108575
N        88.76935317569901   -1.30162998186186    0.12952341347535
H        87.70727525573147   -4.42990437213876    0.49662036068791
H        85.72105176804477   -2.61159344991066    0.30024579076173
H        85.74606290117885    2.67768131643985   -0.34963707342909
H        87.74941636179473    4.47704351981613   -0.54733630525829
H        90.28401633930771    4.35862837102506   -0.49597915750744
H        92.81929120829624    4.46174423495745   -0.46731771479703
H        94.80557981576477    2.64445417136063   -0.26227078911288
H        94.78084089470181   -2.66036810226183    0.24401564408525
H        92.77735024290027   -4.46018164442274    0.43636105652328
H        90.24307057143793   -4.33446049837289    0.45293054443458
