154
 energy: -279.899440991801 gnorm: 0.000608123252 xtb: 6.4.1 (bd6e46d)
Co       21.74432676295045    0.00129756356453   -0.00522334717104
C        24.23864181256275   -3.40893430802811    0.07956407813371
C        25.19168375580084   -2.44990262265542    0.05990491769783
C        24.50263822336373   -1.19626481917289    0.02405888850955
C        25.16810611681225    0.03091489997150   -0.00340079354799
C        24.48131437021562    1.24660964334116   -0.01132044379754
C        25.14869162837842    2.51246410679128   -0.01332525090755
C        24.17946526342526    3.45502342214785    0.01006997669279
C        22.93110318903550    2.75488326005110    0.02061239481253
N        23.12703864059718    1.39869734102143    0.00501212766898
C        21.71148462927668    3.39598140957887    0.04083212710530
C        20.50470451708232    2.73168401546449    0.02362857957453
C        19.23916319517806    3.40551609540550    0.01948214140840
C        18.29266415331991    2.44340323192347   -0.02861719507522
C        18.98717154526702    1.18895968444500   -0.04771602574966
N        20.34063422560386    1.37493800517792   -0.01306963426638
C        18.34199234189077   -0.02811734809776   -0.09130928924839
C        19.00909328310194   -1.23407752824327   -0.08226003966670
C        18.33727706768597   -2.50082198862053   -0.10236361200654
C        19.30013477798877   -3.44670635487248   -0.05685073422913
C        20.55288854398915   -2.75069504068866   -0.01462848340315
N        20.36509575676529   -1.39664863987199   -0.03301077187432
C        21.77031192889944   -3.39355269717054    0.03499826101137
C        22.97841967679108   -2.73093275020847    0.05080671300211
N        23.15107903300715   -1.37180254421263    0.02138522514458
H        24.35516740175134   -4.47477045183193    0.10745796422317
H        26.25895515602885   -2.55533853701200    0.06915648625906
H        26.21385545247064    2.63636008818643   -0.02746161751874
H        24.27760288640636    4.52299547821133    0.01776122643754
H        21.70251092134073    4.47517419081770    0.06129519536156
H        19.11918091037476    4.47118795132706    0.04682297737425
H        17.22501923593123    2.54576632374093   -0.04808672822285
H        17.26325403515943   -0.03740208377413   -0.12401756534045
H        17.27210984774475   -2.62176771331710   -0.14246404759293
H        19.19903015239869   -4.51471306358754   -0.05284653479168
H        21.77990553239064   -4.47278371616305    0.05335851073136
Co       62.03215878127111    0.03680693892460   -0.00398288487856
C        59.54588930095368    3.39987070325049    0.60361129140582
C        58.59066501774755    2.46027853577067    0.42159851630137
C        59.27688210519953    1.22365275316160    0.20274807198026
C        58.60840143801504    0.01525506244461   -0.00236667177000
C        59.29181310234729   -1.18745711838965   -0.19111751995818
C        58.62102307236715   -2.43725683199142   -0.38128487110360
C        59.58798691114360   -3.37113736452872   -0.52690642826921
C        60.83827619137056   -2.68115407567721   -0.42827569646639
N        60.64582874482831   -1.34050440404932   -0.21932539460272
C        62.05608906336972   -3.31466387144185   -0.54783517133268
C        63.26419238138924   -2.65671424112972   -0.47375759137002
C        64.52744172982976   -3.31880988006989   -0.62054736460984
C        65.47641450638432   -2.36589326298122   -0.49719566025300
C        64.78568059423009   -1.12965194209971   -0.27122294005117
N        63.43194923543667   -1.31671239142117   -0.26113757330481
C        65.43469299503919    0.07061838381010   -0.07753797358706
C        64.77131055897449    1.25484829951413    0.16118917915818
C        65.44708091815679    2.49945284778769    0.38633152232375
C        64.48636741694132    3.42655918520017    0.58961470217357
C        63.23105211405971    2.74224608200471    0.48230498216209
N        63.41527103621106    1.41270063645803    0.22268319506109
C        62.01464523459296    3.37552180458580    0.61315799876532
C        60.80465423702430    2.72785339207461    0.48971460266011
N        60.62891300320423    1.39144318524254    0.24247419620612
H        59.43175922569795    4.44896458424436    0.79564748783779
H        57.52364439762026    2.56818251158094    0.43300427489085
H        57.55539082923682   -2.55750899063707   -0.39658962277642
H        59.48704504473984   -4.42665830549275   -0.68867909745452
H        62.06230398311951   -4.38087996357815   -0.71610451734052
H        64.64433178036251   -4.37076058781857   -0.79520250550533
H        66.54349808710043   -2.46392486159406   -0.54711474704497
H        66.51354365427521    0.08217644739954   -0.10551567502140
H        66.51305867023126    2.61946156910925    0.38532103459453
H        64.59040806119540    4.47505743469498    0.79100930359621
H        62.00761132311811    4.43600803526502    0.81439980562925
C        26.56643694619808    0.04285224976589   -0.01021205080774
C        27.78405523377218    0.05319855099763   -0.01497406950712
C        29.12684424841842    0.06095093289876   -0.01799926336542
C        30.34460847614977    0.06687709428003   -0.01863591852071
C        39.99929731634364    0.05035223807236   -0.01727442146028
C        41.21723190510460    0.04249150058499   -0.01702615073590
C        42.55974823983568    0.03520613600190   -0.01694234874647
C        43.77761564115300    0.02623359901149   -0.01707986770689
C        53.43169831511602   -0.00737851721580   -0.01646732516876
C        54.64942503333928   -0.00409504557266   -0.01476153040479
C        55.99232011841735   -0.00061337011190   -0.01095702455399
C        57.20990293638944    0.00786205282185   -0.00827475918007
Co       35.17182109126058    0.05988916098882   -0.01856980907896
C        32.69802046938067   -3.34472072230124    0.37742496638439
C        31.73785088103274   -2.39884484379157    0.26814906730936
C        32.41786972986420   -1.14831738862996    0.12172225290626
C        31.74247923729235    0.06599842582969   -0.01882698753532
C        32.42200524980878    1.27789150325186   -0.15891999071073
C        31.74641499119349    2.53085125174231   -0.30494856514548
C        32.70997224307938    3.47334769139079   -0.41387417946353
C        33.96218931119305    2.78531888175588   -0.33309659949161
N        33.77487026262722    1.43676610173004   -0.17685989435891
C        35.17785910726106    3.42903729236280   -0.40520506578461
C        36.39117895666878    2.78147975160481   -0.32835717564826
C        37.64577616081561    3.46576584086842   -0.40347180077756
C        38.60599286621232    2.51984212575662   -0.29441682694770
C        37.92610113918057    1.26861862512557   -0.15409559175923
N        36.57383881690699    1.43193861357203   -0.17468170884486
C        38.60160084566962    0.05387254050587   -0.01768080625471
C        37.92165862359683   -1.15857892376757    0.11800423360355
C        38.59711895935400   -2.41236981659085    0.25767030534637
C        37.63351482929154   -3.35488840107147    0.36610657330216
C        36.38143848785725   -2.66609923715957    0.29106742715574
N        36.56887027277956   -1.31715235467993    0.13787843755499
C        35.16588712678048   -3.30933071956041    0.36799331457163
C        33.95262832891866   -2.66117092609466    0.29616484435902
N        33.77011952539669   -1.31196865654449    0.13972075256570
H        32.58956093849174   -4.40461318769593    0.50114720107374
H        30.67135993585851   -2.51126505107931    0.28264882172266
H        30.68026565272056    2.64694482740188   -0.31925549614829
H        32.60527275532326    4.53364677003412   -0.53715878725711
H        35.17979166269929    4.50149596836772   -0.52856389324590
H        37.75414371550725    4.52612949314954   -0.52344643699246
H        39.67249748726692    2.63270036615501   -0.30501659725615
H        39.66316947219281   -2.52912373222754    0.26843020705189
H        37.73804903233665   -4.41564918313129    0.48563768370065
H        35.16394438770001   -4.38178857211098    0.49125964683227
Co       48.60476165309429    0.00777401517674   -0.02221553938794
C        46.12525762450130   -3.39089580439256    0.38723048707062
C        45.16669402805572   -2.44214309886098    0.28859366783586
C        45.84869031548420   -1.19401677931362    0.13076180147481
C        45.17529772237451    0.02040791468685   -0.01873539515177
C        45.85732733157829    1.22966676913040   -0.17096342694316
C        45.18422477984812    2.48235333169776   -0.32939494821701
C        46.14943229902207    3.42368349894588   -0.43372107645772
C        47.40020794531676    2.73522474976206   -0.33731072699865
N        47.21037240510697    1.38709938265114   -0.18007157752507
C        48.61673893515590    3.37925367879628   -0.38801214228169
C        49.82864372566228    2.73105038194408   -0.29631473795416
C        51.08441712584469    3.41559801346678   -0.34621845389208
C        52.04281744495795    2.46750492156075   -0.24079575711652
C        51.36059832523745    1.21462989207840   -0.12820076582863
N        50.00867766408562    1.37947690872079   -0.15852752269486
C        52.03370629789980   -0.00405028926808   -0.01923764394186
C        51.35215679049703   -1.21823883758040    0.08651024878398
C        52.02552424751961   -2.47611355506857    0.19696625499322
C        51.06036026341953   -3.41793651232721    0.29710086734513
C        49.80939787240298   -2.72462218270378    0.24679221458059
N        49.99904102557527   -1.37394481634042    0.11319258720274
C        48.59283851477910   -3.36439970220430    0.33644527282259
C        47.38090799912170   -2.71140988809314    0.28928236321731
N        47.20058201704230   -1.36152715654422    0.13600584810178
H        46.01511729399157   -4.45033858269270    0.51333181206559
H        44.10006731173299   -2.55128936958358    0.31570951754058
H        44.11846762041144    2.59933845819105   -0.35369384181467
H        46.04682107668585    4.48354182612711   -0.56231133287602
H        48.62062684138463    4.45237452951792   -0.50530859966776
H        51.19479565885183    4.47751554478168   -0.44936815639870
H        53.10944131460084    2.57968461806599   -0.23904921204075
H        53.09138842463675   -2.59546008873600    0.19727287069068
H        51.16320251755901   -4.48084914262002    0.39722858298418
H        48.58901687190849   -4.43785789233076    0.45068401968960
