332
 energy: -574.894619938963 gnorm: 0.000525577688 xtb: 6.4.1 (bd6e46d)
C        48.74707196397980    3.43181823043607    0.15371940229461
C        49.70517508891563    2.48558510215168    0.11088981126427
C        49.00704810572597    1.21502586658829    0.02773322939695
C        49.67128359243873   -0.02667033183235   -0.03403478516847
C        49.02248104859022   -1.27021764170028   -0.11433365992998
C        49.62832389015339   -2.55342667568045   -0.18032378238829
C        48.62560177199273   -3.47729960311165   -0.24919598835045
C        47.38614494677057   -2.77805448971139   -0.22686842998089
N        47.67867222038849   -1.45032176377708   -0.14468372544122
C        46.11905031667959   -3.33977780373204   -0.27937985164660
C        44.90102858484209   -2.67448120415644   -0.25846367045711
C        43.62386410590391   -3.37076729655288   -0.31939771851346
C        42.67411201928682   -2.41826004810292   -0.27613906677969
C        43.37837199182649   -1.14824077124008   -0.18930574149910
N        44.71436397009097   -1.34063075140278   -0.18124485294397
C        42.73134876915862    0.07934806974046   -0.12474724736727
C        43.35538509605556    1.31459489273095   -0.04253285538811
C        42.74813733030982    2.60120524683569    0.02516048884314
C        43.74732775096040    3.52647922349777    0.09312889982820
C        44.99057508130849    2.82968272323950    0.06884707567463
N        44.70156426928580    1.50435813323736   -0.01300535696476
C        46.25807366532374    3.39080789703860    0.11868284607051
C        47.47653718561377    2.72891739813603    0.09591912909867
N        47.67559630059137    1.39088273708158    0.02030784799293
H        48.85303848159251    4.49773149678834    0.21756873531954
H        50.77189521268345    2.59816470831143    0.13152721701542
H        50.68620320144404   -2.73082269452262   -0.17521393169916
H        48.72460389949558   -4.54358698744386   -0.31005328640204
H        47.00453460106701   -0.69438604405313   -0.11074902489830
H        46.07874947939324   -4.41837048163464   -0.34379168064890
H        43.51241067400635   -4.43617926223061   -0.38535816458338
H        41.60635769188530   -2.52394423752724   -0.29847146616151
H        41.65105666742934    0.07135614588802   -0.14017773654982
H        41.69033464173154    2.77929446178260    0.02135981441125
H        43.64725909359974    4.59285687844050    0.15447161781664
H        45.37376186823496    0.74753919121070   -0.04861563641978
H        46.30003980072424    4.46947231244685    0.18258358999142
C       156.61452529594757   -3.40815641493109    0.37052807197105
C       155.65648386714778   -2.46371940889472    0.29734869363929
C       156.35436277904540   -1.19824507881228    0.15522444347448
C       155.69006888499797    0.04028809336101    0.04677589306106
C       156.33859535323171    1.27969888709371   -0.08368915719105
C       155.73249800488625    2.56009602888627   -0.18976034725105
C       156.73484323055942    3.48067029574828   -0.29747368826596
C       157.97427771349808    2.78202391279095   -0.26063957695580
N       157.68214886973746    1.45808780671401   -0.12990152993639
C       159.24107422760997    3.34052130430767   -0.34508881847840
C       160.45871233874854    2.67475812243268   -0.31753593278704
C       161.73552893835173    3.36677754258263   -0.42002865313548
C       162.68480990816107    2.41463013160771   -0.36124414665022
C       161.98065779160876    1.14920985888021   -0.22215536983166
N       160.64515727423455    1.34384498016957   -0.19959390085613
C       162.62744558491212   -0.07648635777141   -0.12663974381698
C       162.00389339177315   -1.30699355915059    0.01138246424019
C       162.61128068681541   -2.59089201107424    0.11811191536717
C       161.61278748349335   -3.51131926331669    0.24043770553875
C       160.36983257002615   -2.81423967641727    0.21077438280220
N       160.65829747703791   -1.49356406115728    0.07183279902467
C       159.10294748080554   -3.37128646708822    0.30351063431559
C       157.88472532870151   -2.70942772926189    0.27054925092884
N       157.68557926840930   -1.37537302749490    0.14265202703137
H       156.50868252143226   -4.47042770357398    0.47937943504236
H       154.58997843792341   -2.57447844425861    0.33291918826217
H       154.67471377312344    2.73802112943056   -0.18266536144765
H       156.63556564337813    4.54427540523472   -0.39425399065399
H       158.35663239516927    0.70372679513197   -0.07475835274533
H       159.28139309215240    4.41629708898080   -0.44615185653342
H       161.84709830308316    4.42936418759395   -0.52169699709151
H       163.75220375856961    2.51787378924941   -0.40342273224921
H       163.70730978954691   -0.07073476691491   -0.16127836354063
H       163.66870080970935   -2.77056177732466    0.10215828273113
H       161.71310971496143   -4.57460210148353    0.34193125525382
H       159.98612338293788   -0.73775780834808    0.01867755878460
H       159.06125174965197   -4.44643141933118    0.41156762762206
C        51.06683396490499   -0.02789712025184   -0.01576660870868
C        52.28721858143021   -0.02399596607754   -0.00058639213276
C        53.62246099633064   -0.01894419087631    0.01317760699082
C        54.84727492561962   -0.01143360723070    0.02332258882659
C        56.18232386436470   -0.00206582702401    0.03025196251214
C        57.40299625083503    0.00752657504719    0.03349008958256
C        67.21807333412977   -0.02958884954317    0.00809234739765
C        68.43890061653390   -0.01746515151923    0.00777786200011
C        69.77346812247671   -0.00317537086035    0.00370420200695
C        70.99853061197840    0.01306237397350    0.00172283956178
C        72.33309175598710    0.02717359658599    0.00191793767765
C        73.55394571490493    0.03989660284923    0.00219216041129
C        83.36781075003388   -0.01663771683089    0.00370619809455
C        84.58869469217819   -0.00715025806641    0.00324014572272
C        85.92328074770958   -0.00095382708100    0.00253189064252
C        87.14840147365534    0.00748299371898    0.00262396247396
C        88.48295182960888    0.01903236785307    0.00243961957400
C        89.70382718145446    0.02719326057510    0.00248251587129
C        99.51685670064593   -0.01367893720138   -0.00206924954011
C       100.73768180973732   -0.00188556906592   -0.00815133077928
C       102.07219565824974    0.00981709264596   -0.01415398703171
C       103.29728768648695    0.02163960140727   -0.01942451939445
C       104.63181533647784    0.03240589400070   -0.02243468054897
C       105.85266033026384    0.04116720920070   -0.02337604702594
C       115.66404787751283   -0.02458369600967    0.02562361229001
C       116.88488159447834   -0.01374087728327    0.02183361197109
C       118.21939017126127   -0.00207890285801    0.01714983981884
C       119.44442348343534    0.01207492992756    0.00736098003973
C       120.77891335967931    0.02460247344036   -0.00027713844819
C       121.99970920727526    0.03600915392666   -0.00927928418696
C       131.81043124762118   -0.02135872250066    0.00723306274021
C       133.03115585690145   -0.00716378678232    0.02001964198408
C       134.36559626357138    0.00810401121904    0.03410758129476
C       135.59053540457973    0.02481093534728    0.04875461459661
C       136.92500169945956    0.03893931593937    0.06258153917468
C       138.14575261856351    0.05223911891404    0.07481554019981
C       147.95851103540650   -0.01057807483975    0.09796150303150
C       149.17914873686217    0.00074808782129    0.09617814322318
C       150.51413634360185    0.01189464532361    0.09223817119928
C       151.73897939846825    0.02415409300480    0.08824927469282
C       153.07418422785665    0.03376719813146    0.07783170470589
C       154.29461692753361    0.04173721376397    0.06676486542197
C        59.77653540040824   -3.41342801934181    0.39676450544170
C        58.80178572952801   -2.48819476987712    0.29954698223228
C        59.47755562729819   -1.21148038152140    0.16085516445404
C        58.79723753917687    0.01656036361959    0.03247781811877
C        59.44432891304220    1.25734920544346   -0.09952063776788
C        58.84646006974612    2.53753083480182   -0.23296223429484
C        59.85697646110176    3.45094858153966   -0.33474163031748
C        61.09126774971303    2.74683496734588   -0.26568748722722
N        60.78963381865690    1.42685967934287   -0.12323299401925
C        62.35932323103447    3.30810617022275   -0.33326426970537
C        63.58650066536440    2.66824786413746   -0.27167786291242
C        64.84502779606100    3.38989573103890   -0.35689187600034
C        65.81967755989018    2.46445971660127   -0.26131934214041
C        65.14374677826531    1.18809778579124   -0.11940787662966
N        63.80943421349556    1.33907301207072   -0.12908460091445
C        65.82421959725002   -0.03981475955833    0.01139855949409
C        65.17726087496209   -1.28024010216043    0.14798259763950
C        65.77522914812602   -2.56014276371005    0.28412454126796
C        64.76479435346960   -3.47355851870688    0.38642824635506
C        63.53037099814372   -2.76976744828862    0.31512893218533
N        63.83209059634764   -1.44979584471826    0.17137095133244
C        62.26238474202364   -3.33100713563501    0.38050752871983
C        61.03500701078387   -2.69129653729291    0.31567545847336
N        60.81214519262027   -1.36226090813021    0.17351391435757
H        59.68914542922433   -4.47674339714811    0.51149934662064
H        57.73705203056618   -2.61870559487837    0.31646347086975
H        57.78981385853547    2.72114665087399   -0.24775876968940
H        59.76561909012533    4.51369792038613   -0.44746064592162
H        61.44567692462919    0.65752785793032   -0.04460695951145
H        62.38986422589284    4.38313018370677   -0.44909406567829
H        64.93245820020866    4.45305698686971   -0.47295687355134
H        66.88439844904880    2.59465890897227   -0.28114096650466
H        66.83190524679962   -2.74358077547563    0.29985492962253
H        64.85625091353246   -4.53614031718943    0.50069805412362
H        63.17594182313096   -0.68076992005404    0.09082804634333
H        62.23160339982401   -4.40600106107221    0.49662750585874
C        75.91897229612151   -3.37890059324736    0.42155516299726
C        74.94652751453584   -2.45299863518181    0.30905811004461
C        75.62547933918123   -1.18003636502865    0.15213552313025
C        74.94779719035333    0.04727815969172    0.00191784172521
C        75.59747570088631    1.28445998950585   -0.15015136022274
C        75.00236525479914    2.56324074581794   -0.30692414448109
C        76.01490882080577    3.47318532951593   -0.41948480281453
C        77.24765288048134    2.76821412281314   -0.33373776690145
N        76.94308072459616    1.45114500187526   -0.17154194854129
C        78.51705382104994    3.32608423462608   -0.40358855942922
C        79.74271402163168    2.68497720528098   -0.32587476218660
C        81.00299406577047    3.40303675713038   -0.41513553910540
C        81.97541510081273    2.47720484812871   -0.30205343627075
C        81.29640495400039    1.20425281282554   -0.14509785690925
N        79.96241773556264    1.35760661527221   -0.16287560657108
C        81.97397987202760   -0.02305069275585    0.00509197603447
C        81.32426733724657   -1.26029418270464    0.15692731927342
C        81.91945346473167   -2.53915634531903    0.31300307977231
C        80.90697736449059   -3.44921709940058    0.42496481082889
C        79.67419210364368   -2.74426745514534    0.33951696085721
N        79.97871966534903   -1.42704118032025    0.17814393860074
C        78.40486758653356   -3.30215470512811    0.40900383538493
C        77.17919022765712   -2.66088200237955    0.33201359979055
N        76.95951632217773   -1.33345515042621    0.16965665129312
H        75.82901325508681   -4.44018917993792    0.55188383854031
H        73.88150407741284   -2.58094284938208    0.32607989633235
H        73.94611093717486    2.74842828379153   -0.32895239140297
H        75.92586940027697    4.53411009689140   -0.54985506627615
H        77.59738119815546    0.68206187667978   -0.07747696765837
H        78.55026000462624    4.39916103387489   -0.53561369160084
H        81.09296445710930    4.46430035056720   -0.54570154096945
H        83.04046765577495    2.60512622821661   -0.31863553713400
H        82.97570998165362   -2.72428881456177    0.33504718156357
H        80.99606660125460   -4.51021009527405    0.55471529971376
H        79.32431692506415   -0.65802006526134    0.08431580463809
H        78.37160289922316   -4.37531570781978    0.54028715979697
C        92.07424501307223   -3.38936160618387    0.41739298675431
C        91.10030996549757   -2.46499444384951    0.30521384940965
C        91.77723551769377   -1.19063806234359    0.15080494292326
C        91.09764922155271    0.03574443008990    0.00235621295715
C        91.74518659184261    1.27448826826409   -0.14668706100287
C        91.14759565883280    2.55246201223737   -0.30073719607952
C        92.15835519431583    3.46479057479045   -0.40979936353330
C        93.39243393973175    2.76210446174332   -0.32477087942388
N        93.09043134275942    1.44394522954453   -0.16651760822233
C        94.66073765189535    3.32268370827143   -0.39202181235652
C        95.88746427755781    2.68339978817696   -0.31629353660922
C        97.14656481916937    3.40365914868452   -0.40387392836871
C        98.12044293853801    2.47884140639730   -0.29511331783326
C        97.44343426947181    1.20434071013979   -0.14206470209225
N        96.10922402284113    1.35579662459185   -0.15798104385747
C        98.12307293472617   -0.02240418912912    0.00342216805507
C        97.47569041562585   -1.26093613481248    0.15449297659461
C        98.07328796058481   -2.53891619904596    0.30857297949822
C        97.06253490192667   -3.45084928098295    0.42095786533437
C        95.82842192657947   -2.74798804650453    0.33750329708733
N        96.13045065385106   -1.43005926911150    0.17727576932833
C        94.56008873073668   -3.30822344099007    0.40676490441976
C        93.33332692481737   -2.66903118048591    0.32994576612284
N        93.11150100594844   -1.34175883610327    0.16921888005089
H        91.98603086510627   -4.45099802503811    0.54608567267805
H        90.03546930124429   -2.59475936260248    0.32089578876747
H        90.09099719867481    2.73552906410326   -0.32338244900948
H        92.06728354238189    4.52586941948099   -0.53743226436998
H        93.74630962491975    0.67607272851056   -0.07365603967162
H        94.69201009149191    4.39623247553012   -0.52055579686434
H        97.23484786251129    4.46552422508323   -0.53059929936213
H        99.18527679904457    2.60843332388635   -0.31206800101924
H        99.12989629429394   -2.72221593376251    0.32923065136056
H        97.15365054996836   -4.51179877466352    0.54966090712036
H        95.47451810254641   -0.66217415480072    0.08497847885095
H        94.52874465947041   -4.38157492800100    0.53695372375262
C       108.21070424588881   -3.38175966395720    0.39859259816671
C       107.24019627327975   -2.45447080735885    0.28115849373124
C       107.92178821200945   -1.18203774893024    0.13121340536457
C       107.24647713071131    0.04634900383057   -0.02050272490257
C       107.89795180159801    1.28314028799370   -0.16813720877999
C       107.30438726773670    2.56238977012071   -0.32726283972477
C       108.31797226581234    3.47205795922359   -0.43228027144902
C       109.54980334017236    2.76646353537445   -0.33933267050939
N       109.24368542172782    1.44924231415834   -0.18106572749676
C       110.81994085286333    3.32366814548606   -0.39904398436616
C       112.04432600947652    2.68107816178054   -0.31389672367918
C       113.30599574095876    3.39771146509571   -0.39363762770675
C       114.27648145212663    2.47031310928880   -0.27696453858926
C       113.59484905490548    1.19789642729163   -0.12705455320763
N       112.26121176052479    1.35306241815182   -0.15230489929789
C       114.27024601850711   -0.03051067303620    0.02415362481316
C       113.61888367336401   -1.26726097751884    0.17251602305295
C       114.21242293617084   -2.54648303299106    0.33192221236537
C       113.19881198211405   -3.45605744679776    0.43765811047660
C       111.96697545087717   -2.75044369536677    0.34475999162408
N       112.27313090370173   -1.43330755867919    0.18597439520193
C       110.69678969926903   -3.30759523683772    0.40466944145200
C       109.47238277902331   -2.66507827282683    0.31910960328840
N       109.25543368272457   -1.33711690733565    0.15709165987182
H       108.11856984184007   -4.44318360495500    0.52626878576339
H       106.17491730186872   -2.58114246746266    0.29046983224770
H       106.24837911803073    2.74802771916267   -0.35594458241462
H       108.23023156809917    4.53316210005296   -0.56202946660033
H       109.89741442395380    0.68012550518912   -0.08371487266025
H       110.85502426373404    4.39694607626058   -0.52879568563631
H       113.39814264922670    4.45916626235296   -0.52101690260884
H       115.34175967848270    2.59690579642799   -0.28668437911997
H       115.26843308644797   -2.73217225970872    0.36037153021496
H       113.28653670986222   -4.51711472369613    0.56782395523607
H       111.61936045121135   -0.66424058415029    0.08854107667742
H       110.66171655920604   -4.38083865104278    0.53473987835673
C       124.36169860590248   -3.38651914780399    0.38821128296399
C       123.39016408895633   -2.45912305941022    0.28069972789150
C       124.07036477033527   -1.18625942833706    0.12781237564824
C       123.39349559464291    0.04206808015659   -0.01744083770327
C       124.04318699644246    1.27901669732105   -0.17126852351109
C       123.44771703355237    2.55772653474506   -0.32773771432029
C       124.45992726291443    3.46760456601302   -0.44362452931939
C       125.69283253524519    2.76275459296444   -0.35968828434774
N       125.38865910437687    1.44572846558348   -0.19587557044763
C       126.96228140270775    3.32015261317365   -0.43062948309811
C       128.18746082422822    2.67840098763100   -0.34990306986561
C       129.44830066802862    3.39568676491501   -0.43626951129000
C       130.41987482640519    2.46978989103970   -0.31659882098671
C       129.73974825438103    1.19739247329886   -0.15994242588821
N       128.40588712621954    1.35122799646588   -0.18356236882804
C       130.41665051592344   -0.02966380850363   -0.00454096136352
C       129.76692615892645   -1.26753922827542    0.14161692038021
C       130.36231974311150   -2.54635677305470    0.29720337966234
C       129.35003787666119   -3.45759033980115    0.40142180937291
C       128.11719768376679   -2.75325510731520    0.31263358544687
N       128.42140174145521   -1.43542604010630    0.15598743607844
C       126.84773131394576   -3.31160481088141    0.37682455829947
C       125.62258755698208   -2.66940228675424    0.30054415655511
N       125.40415705777448   -1.34113102674639    0.14294297580424
H       124.27074928063280   -4.44822182792635    0.51440291917780
H       122.32501658627446   -2.58600824334578    0.29821801290599
H       122.39140729601182    2.74284235235054   -0.34759646203622
H       124.37055036380909    4.52839697112941   -0.57481741821144
H       126.04399601667825    0.67748753417497   -0.10280784117756
H       126.99613327554218    4.39300649138874   -0.56416375183770
H       129.53923257237159    4.45657694399706   -0.56913900522734
H       131.48501312284662    2.59727091967897   -0.32937894448084
H       131.41860500283860   -2.73078004234317    0.32354919221473
H       129.43931398717891   -4.51890439081143    0.52839610865798
H       127.76637096030180   -0.66708999166432    0.06139657712958
H       126.81399953607830   -4.38515832573976    0.50462322055484
C       140.50617763439709   -3.36440142833491    0.52987184175768
C       139.53502866518284   -2.43847916633463    0.40731730528268
C       140.21577952915649   -1.16714921889454    0.24442155577062
C       139.53957474331941    0.05964144385624    0.08401470045683
C       140.19029655901716    1.29607964846028   -0.06935768103536
C       139.59609567536538    2.57469004182781   -0.23168209219542
C       140.60919084255175    3.48414868240104   -0.34262456114245
C       141.84148973652017    2.77907385257980   -0.25091278850135
N       141.53593223800300    1.46245662578922   -0.08604887209092
C       143.11133569908563    3.33561120764194   -0.31975616789036
C       144.33627540561994    2.69305153388274   -0.23952783655520
C       145.59738951848519    3.40916570031752   -0.33159012550303
C       146.56865661142069    2.48240208513271   -0.21615514965784
C       145.88812425802516    1.21090571458180   -0.05442551106119
N       144.55414109617959    1.36607274800663   -0.07220779971635
C       146.56432567416135   -0.01646049896398    0.10021828315568
C       145.91351603006413   -1.25228901277099    0.25774590706633
C       146.50758817748431   -2.53093046558661    0.41988484538959
C       145.49437760319358   -3.43946418439809    0.53766747848776
C       144.26219736230092   -2.73384496332428    0.44953951760689
N       144.56772382667185   -1.41785389091703    0.28087180331458
C       142.99223275863437   -3.29014766201624    0.52234488019726
C       141.76742268731599   -2.64816862692187    0.43944398448378
N       141.54950024823285   -1.32155641851371    0.26783024026345
H       140.41473545153656   -4.42468959934402    0.66718345815877
H       138.46981160041167   -2.56529774791678    0.42140490240005
H       138.53995810454012    2.76001830786283   -0.25803083197589
H       140.52085422149841    4.54477706711831   -0.47589131706006
H       142.19031879546409    0.69404677348776    0.01231055631272
H       143.14601176106586    4.40829287450586   -0.45453498211873
H       145.68872991867693    4.46985175375198   -0.46585708631094
H       147.63384879517290    2.60882410652762   -0.23407512449990
H       147.56370362447595   -2.71693204072694    0.44168486581941
H       145.58259993709729   -4.49986094610297    0.67284429426448
H       143.91350434095139   -0.64911437794262    0.18384164291923
H       142.95781866131378   -4.36241851141562    0.66041724805530
