201
 energy: -368.644703002203 gnorm: 0.000857452286 xtb: 6.4.1 (bd6e46d)
Co       23.89371985262766   -0.00274185624862   -0.00781011723319
C        26.39332107289809   -3.41109699323691    0.05313876956983
C        27.34457768295299   -2.45022704497205    0.03764992959699
C        26.65280462506272   -1.19774299607161    0.01397840584432
C        27.31613620179639    0.03094411197109   -0.00244675010578
C        26.62879284012330    1.24639347079505   -0.00393747122089
C        27.29578093752274    2.51244385243530    0.00133886624822
C        26.32584684324329    3.45444329665407    0.01859889452049
C        25.07795031183922    2.75345815045380    0.01923240993741
N        25.27457092560767    1.39731054540593    0.00470497466781
C        23.85762108502300    3.39332439911995    0.02709938939961
C        22.65200277232551    2.72697455851682    0.00562227169322
C        21.38576317859900    3.39934498173512   -0.00748513526912
C        20.44036880711511    2.43575289485404   -0.04650419904462
C        21.13632858485683    1.18196914267814   -0.05219889253382
N        22.48965145745075    1.36969528305881   -0.01975708791367
C        20.49232405595112   -0.03621433440512   -0.08028966174167
C        21.16054987470489   -1.24151911050519   -0.06451658557012
C        20.48967658470647   -2.50888334700039   -0.07296881781011
C        21.45381154215231   -3.45375762818093   -0.03462405951541
C        22.70625682773489   -2.75647160133108   -0.00729050828957
N        22.51716913323583   -1.40254084497902   -0.02650936838189
C        23.92447848408532   -3.39888171142110    0.02791877107690
C        25.13190256329433   -2.73503748202530    0.03519660698378
N        25.30184027628016   -1.37535833516437    0.01362389582844
H        26.51216113033759   -4.47690331930527    0.07251229232904
H        28.41209777356883   -2.55440608655317    0.04262409669504
H        28.36104308682708    2.63766946631037   -0.00512957112886
H        26.42366369555009    4.52251812156753    0.02831683347736
H        23.84712109687915    4.47255700104620    0.04273579021909
H        21.26477125515155    4.46518561224629    0.00891138876672
H        19.37256064833823    2.53676837960979   -0.06806361950644
H        19.41347545063818   -0.04686796700686   -0.10786682429465
H        19.42423996190896   -2.63092110828904   -0.10201257876329
H        21.35399770084998   -4.52188389699863   -0.02638511916741
H        23.93508715791456   -4.47812144783070    0.04322076710396
Co       87.80045318074036    0.03374103756843   -0.00481470057524
C        85.31188349401022    3.38606139749414    0.65585140403592
C        84.35762487747830    2.44738648265554    0.46431142676045
C        85.04549679507258    1.21628622979655    0.22133687796315
C        84.37845657618652    0.01158019210632   -0.00965611003045
C        85.06174175312651   -1.18728493557039   -0.22295456306011
C        84.39052075425477   -2.43219972814666   -0.44078243185011
C        85.35734491767980   -3.36506091374937   -0.59372495404907
C        86.60756284884364   -2.67892879098637   -0.47212625246863
N        86.41546155661642   -1.34132828670406   -0.24414002395902
C        87.82573887815956   -3.31309780084021   -0.58399278285048
C        89.03340989557782   -2.65693258995105   -0.48947350524765
C        90.29744560161099   -3.31915712455285   -0.62829537105716
C        91.24583489994987   -2.36723476715479   -0.49344758387307
C        90.55388245233195   -1.13151064070795   -0.26850130767170
N        89.20004446548663   -1.31814798959481   -0.26794466746755
C        91.20188362794777    0.06896254776956   -0.07235653101155
C        90.53772756676780    1.25294817397258    0.16555603755379
C        91.21292707326653    2.49765413633069    0.39184506450777
C        90.25192718885545    3.42300765372847    0.60161234543769
C        88.99703437064665    2.73748703130311    0.49722352547760
N        89.18161254252550    1.40928164568260    0.23068291829587
C        87.78078010446048    3.36787418263530    0.64324389085769
C        86.57120511316462    2.71882932610543    0.52352715560798
N        86.39704740741959    1.38569377511455    0.25809363704050
H        85.19635887473056    4.43169864894014    0.86500170000332
H        83.29041227112697    2.55329027405044    0.48303111069632
H        83.32484251053192   -2.55109415969503   -0.46686379387618
H        85.25601431720341   -4.41754906737512   -0.77382559751942
H        87.83267441767242   -4.37752823883125   -0.76294651743559
H        90.41497141208499   -4.37049399170320   -0.80662055339756
H        92.31326807039402   -2.46562942083467   -0.53562702244127
H        92.28076669362207    0.08092055491365   -0.09789044537631
H        92.27884355292770    2.61886932765557    0.38774631506821
H        90.35530770793368    4.47099796220022    0.80644385246091
H        87.77352899239406    4.42639728881888    0.85436218441919
C        28.71299977031750    0.04388235447899   -0.00708464815037
C        29.93228342588203    0.05524686452087   -0.01049435558076
C        31.26872326255249    0.06209620891525   -0.01378595820779
C        32.49250372418592    0.06774186980636   -0.01292322697221
C        33.82880634238282    0.07070646427203   -0.01425795302383
C        35.04829229325816    0.06879134465452   -0.01441889215897
C        44.69172907008801    0.04315712470165   -0.02408441415791
C        45.91127844450111    0.03984770203472   -0.01802848240190
C        47.24719651593961    0.03300570764780   -0.01559674197127
C        48.47112621567766    0.02885125705283   -0.01700982496411
C        49.80703924367683    0.02556935441044   -0.01444600720931
C        51.02657186850045    0.02768946404453   -0.01967641177635
C        60.66944724312770    0.04983815040316   -0.02758037952148
C        61.88898772281673    0.04824593933346   -0.02500726380018
C        63.22489473287337    0.04512459272917   -0.02244590140350
C        64.44881843510616    0.04046717598725   -0.02456596933089
C        65.78471579465271    0.03400500457779   -0.02047321779746
C        67.00424512841418    0.03213343999373   -0.02348958768390
C        76.64645759970858   -0.01734748830086   -0.02749882912567
C        77.86588726137677   -0.01811426203678   -0.02867589477113
C        79.20217512414574   -0.01815868685658   -0.02520499374375
C        80.42591203221944   -0.01164983809088   -0.02518989803735
C        81.76233542522951   -0.00436915357342   -0.02352969381636
C        82.98157109890668    0.00374995762900   -0.01788625233481
Co       39.86990173734095    0.05688110253498   -0.02109510833927
C        37.39465517632710   -3.33973172282023    0.43084729968810
C        36.43594232434414   -2.39251133687384    0.32017478245586
C        37.11802393490978   -1.14655883154128    0.14710347264839
C        36.44453863515462    0.06617888772508   -0.01534215229840
C        37.12390702876973    1.27540359825772   -0.17894355346287
C        36.44809778490055    2.52525282241794   -0.34821822537676
C        37.41160192873089    3.46734271914219   -0.46117397607595
C        38.66358668456138    2.78195250307024   -0.35934264102333
N        38.47650986383263    1.43475893904057   -0.19024476091547
C        39.87890941069609    3.42783104841576   -0.41470942588707
C        41.09110213441840    2.78105883293449   -0.31778968105738
C        42.34662232713545    3.46538502479720   -0.37247960003358
C        43.30513935397725    2.51784097116077   -0.26243899319795
C        42.62274454732855    1.26582765421558   -0.14266727784098
N        41.27114811404218    1.43023871805419   -0.17184134681865
C        43.29579580145817    0.04766270397002   -0.02543256304144
C        42.61621910710852   -1.16701673252012    0.09153661214082
C        43.29235181229989   -2.42278043548441    0.20826781573187
C        42.32913167524889   -3.36519426783622    0.32086630829881
C        41.07715372793979   -2.67406839107993    0.27130534801508
N        41.26399103634260   -1.32418292933317    0.12499770912719
C        39.86186716446412   -3.31407384209792    0.37373486347581
C        38.64997165395341   -2.66139306085681    0.32335972732815
N        38.46970108400825   -1.31333022207443    0.15387737387408
H        37.28470472235814   -4.39746310974011    0.57055226740614
H        35.36936366073306   -2.50195634226101    0.34885540103610
H        35.38203075110525    2.64064591035700   -0.37271942344482
H        37.30694699295869    4.52584013182099   -0.59922137358584
H        39.88133647044820    4.49998544211587   -0.54021029212738
H        42.45689689861288    4.52672841043747   -0.48113678673527
H        44.37177925654540    2.63066081658336   -0.26143158088687
H        44.35833919023281   -2.54136525675108    0.20275431673578
H        42.43404673908451   -4.42718516525155    0.42837926706410
H        39.85891454556881   -4.38613356936365    0.49995323989675
Co       55.84809874430745    0.03890606787935   -0.02198283990428
C        53.38913111861574   -3.37401179127024    0.40502427933703
C        52.42568108485556   -2.43174529513071    0.29297564172404
C        53.10170719433248   -1.18076071806132    0.13309946213826
C        52.42248003277706    0.03003502640248   -0.01963789639221
C        53.09582630335883    1.24420893040870   -0.17237254077740
C        52.41311320096994    2.49192124758173   -0.32959417802433
C        53.37150156294706    3.43944265343143   -0.44057947678792
C        54.62718115279782    2.75936608270725   -0.34992284641074
N        54.44738448984683    1.41036920158922   -0.18706643409786
C        55.83930788636336    3.40998298304881   -0.41689120293189
C        57.05488838718487    2.76778966306678   -0.33314544714327
C        58.30698534892638    3.45679758566536   -0.40442652754686
C        59.27038987634674    2.51408082450824   -0.29589043435226
C        58.59425082064244    1.26041607617957   -0.15901112412572
N        57.24182269233175    1.41862235569890   -0.18057297884681
C        59.27355435484126    0.04729723189158   -0.02668387269085
C        58.60032637450225   -1.16912025581305    0.10759751779287
C        59.28292437727070   -2.41941215877261    0.24313124549279
C        58.32447185253199   -3.36650542144240    0.35719041262062
C        57.06884517658349   -2.68362590315531    0.28939301307609
N        57.24874299942044   -1.33381161011028    0.13376162607575
C        55.85676173345799   -3.33177639241679    0.37784254416597
C        54.64117466373023   -2.68746161770762    0.31213287953718
N        54.45414515258317   -1.33980336655460    0.14720207934096
H        53.28446328437713   -4.43321623775503    0.53737028678086
H        51.35958033704138   -2.54772197243356    0.31306744692608
H        51.34641667424353    2.60232437639944   -0.34896109461416
H        53.26106639893645    4.49829548864891   -0.57108778869229
H        55.83645533540593    4.48214693405854   -0.54231184311821
H        58.41171686246582    4.51774988211001   -0.52200955693638
H        60.33651670985034    2.63126625860530   -0.30488459859874
H        60.34959992155373   -2.53157789495987    0.24823023205196
H        58.43480707663169   -4.42668975290655    0.47637452414662
H        55.85968078315524   -4.40369849337327    0.50521924673160
Co       71.82527909998267    0.00731361657394   -0.02053676849033
C        69.34036954506566   -3.38206894671196    0.43724871333994
C        68.38442178602158   -2.43186485930942    0.32831639476071
C        69.07002419114609   -1.18869790360029    0.14914953537594
C        68.40013874064408    0.02494294950890   -0.02163106761570
C        69.08281196950892    1.23156045956784   -0.19106224706593
C        68.41013845217982    2.48190731606078   -0.36931078351865
C        69.37587688625354    3.42250114404401   -0.47559983705992
C        70.62594556557163    2.73560451799176   -0.36136333738537
N        70.43555631293239    1.38879627579806   -0.19295101287055
C        71.84270868054963    3.37969847311905   -0.40299557945280
C        73.05278796629922    2.73005203610634   -0.29904382213261
C        74.31002000906176    3.41192590928090   -0.34323259344382
C        75.26598500866821    2.46137897431262   -0.23758631761752
C        74.58036798118795    1.21000150535434   -0.12977429547420
N        73.22920571150867    1.37784084553363   -0.16152354640202
C        75.25023882563190   -0.01101933565925   -0.02494888712532
C        74.56766723342442   -1.22464460145049    0.08244057433490
C        75.24017429827634   -2.48313705824247    0.18973110529542
C        74.27433870591139   -3.42318449229826    0.30004206367569
C        73.02435606628624   -2.72791401017138    0.25865416922803
N        73.21484901856419   -1.37788457535162    0.11858751690455
C        71.80763558979687   -3.36465586101606    0.36570373022799
C        70.59756602769338   -2.70812802913875    0.32356876590046
N        70.42102041604316   -1.35969795276579    0.15310879419529
H        69.22740117096131   -4.43913407384125    0.57941690464930
H        67.31761643269951   -2.53782951667348    0.36123627058112
H        67.34448033568745    2.59865296507636   -0.40370800241681
H        69.27390533947052    4.48085947222905   -0.61667404640609
H        71.84829757635632    4.45230338122052   -0.52440256988768
H        74.42310952454251    4.47378291981269   -0.44354693976932
H        76.33284132993845    2.57168756039018   -0.23257370075386
H        76.30581187016107   -2.60478293542749    0.18134718660777
H        74.37625069054874   -4.48607552050369    0.40159341533391
H        71.80210636740512   -4.43708800084000    0.48868495067220
