111
 energy: -203.079144963044 gnorm: 0.000534909418 xtb: 6.4.1 (bd6e46d)
Ni       17.05653846868522    0.00234101558836    0.01710268522725
C        19.55418330364509   -3.22836124981965    1.09603004010465
C        20.50419088142483   -2.29807597366277    0.85051200924367
C        19.81769908147108   -1.11817205360589    0.41797822158757
C        20.48219201775706    0.05264129728058    0.04169123604167
C        19.78842956007122    1.21725883479731   -0.29728607221020
C        20.44533181746448    2.43989090412119   -0.64931211177445
C        19.47382226718820    3.36519754580009   -0.81654798157467
C        18.22839409075814    2.69597358208369   -0.58772954352794
N        18.43546692983479    1.37719626754313   -0.28393368321863
C        17.00600060998169    3.33058438886839   -0.67201849275964
C        15.80142524403608    2.67221671253762   -0.53595542637121
C        14.52983268118304    3.32089119399792   -0.68073850405604
C        13.59046337160240    2.35698967065349   -0.56860589109576
C        14.29155219210278    1.12528330014924   -0.34293597458484
N        15.64063986215639    1.33374113571850   -0.31541525362469
C        13.65514474873855   -0.08936359506818   -0.18679474509166
C        14.33083636457551   -1.26093295085670    0.08834133483556
C        13.67052463219126   -2.51756086379491    0.29855778465723
C        14.63270044874457   -3.41074820078632    0.61590503636909
C        15.87778071669052   -2.69856518927879    0.58846303155394
N        15.68019585697665   -1.38892995497992    0.25415760853613
C        17.09169532123389   -3.28405640581293    0.88331085869456
C        18.29387973158148   -2.61101449613174    0.81011989817184
N        18.46946811123901   -1.31151138331253    0.41520538606111
H        19.67305009747161   -4.23918060857123    1.43476757973236
H        21.56796870353681   -2.37449461551972    0.96087643950084
H        21.50662365833556    2.54925205740279   -0.75439402754909
H        19.56826243695038    4.40143197601687   -1.07715239583972
H        16.99259551192839    4.38970951557577   -0.87926509421089
H        14.40161704698483    4.37200503596299   -0.85332169627627
H        12.52276437587737    2.44479877113101   -0.62608030256592
H        12.57923609651055   -0.12096039087078   -0.26402864890557
H        12.61136514222592   -2.66694035615378    0.21575414357548
H        14.53594078010240   -4.45371013851940    0.84816540798634
H        17.10429052983278   -4.32391327144557    1.17222480616547
Ni       38.79595246213457    0.02804044344101    0.00375120506771
C        36.30507006903607    3.22823116211346    1.19896751127410
C        35.35204422858108    2.31916247736673    0.89363700110696
C        36.03737207994725    1.15143870506052    0.42686012149004
C        35.36951137892802    0.00265544313386   -0.00488970273669
C        36.05620017317260   -1.14284219711069   -0.41441465883789
C        35.39066031835355   -2.33161286006098   -0.85581238986734
C        36.35766384123585   -3.24004514265214   -1.11550730127712
C        37.60765090468957   -2.59566327473308   -0.84365319864610
N        37.40833539521956   -1.30733036472441   -0.42518224305449
C        38.82653980228791   -3.22479868507373   -0.99150378673208
C        40.03447446022567   -2.59401831706641   -0.77725382983513
C        41.30160640225601   -3.24202243913103   -0.95867415842921
C        42.24905945179265   -2.31188839629464   -0.71146299796807
C        41.55670971200294   -1.10116535598005   -0.37368702348221
N        40.20468274843861   -1.28908572156659   -0.41089086294749
C        42.20429259946287    0.07827854076698   -0.06723602663310
C        41.53586300879629    1.23286237278691    0.28561046658450
C        42.20661909597233    2.45487429367701    0.62632532529010
C        41.24488076428673    3.34382755876426    0.95614788012889
C        39.99051264484165    2.66288283926021    0.81053016567565
N        40.18216435109544    1.37626250077960    0.39357680297059
C        38.77400689307461    3.25496208814042    1.07980239570029
C        37.56578382119817    2.60867504679032    0.91938265881615
N        37.38706237367004    1.33151963970258    0.45885456163667
H        36.18825877334589    4.22509220692981    1.57743518980366
H        34.28653341340679    2.40296057073523    0.98046900704459
H        34.32749902660526   -2.42992361296794   -0.95473794780476
H        36.25728527883701   -4.25001592438822   -1.46263726225244
H        38.83453527051302   -4.25815512368685   -1.30290646395040
H        41.42166100599908   -4.26976381261997   -1.24218850338206
H        43.31685585432068   -2.40974526291277   -0.74622026419401
H        43.28290701906311    0.09601183379147   -0.09580020190539
H        43.27126098961225    2.58631087551581    0.61100397657551
H        41.34746572985539    4.36467117503924    1.26984954840736
H        38.76560792975299    4.27625993013389    1.42875071262228
C        21.88414110239427    0.06166795308136    0.02353930267908
C        23.09655569216258    0.05677277703056    0.00525670234555
C        32.75528539724674   -0.00778125187249   -0.02830414183843
C        33.96745209804562   -0.00220657285768   -0.01794019122684
Ni       27.92603487324289    0.02395641963191   -0.04832571029175
C        25.44400869616966   -3.37872942110762   -0.31304427363379
C        24.49014523500038   -2.42005324337668   -0.31218621739047
C        25.16884812433098   -1.16958504418735   -0.15124608883478
C        24.49802075320132    0.04930338634527   -0.01439437834047
C        25.18920889151884    1.25886615232532    0.09940242688523
C        24.53236832807112    2.52090302517355    0.25935979827487
C        25.49871985701839    3.46611663869614    0.22100061306894
C        26.74030177232702    2.77358946699348    0.05052928847766
N        26.53814414083573    1.42008343918017    0.00497281413002
C        27.95092679496564    3.41742090289299   -0.10103045618171
C        29.15361559468100    2.75274494661687   -0.22106983614587
C        30.40815710283177    3.42197526313976   -0.39060867294330
C        31.36201520032250    2.46347518431011   -0.37354983758857
C        30.68304181380596    1.21620894442403   -0.18917980444602
N        29.33532132680026    1.39878336038582   -0.12647891800606
C        31.35378260808080   -0.00078631283816   -0.03974869489772
C        30.66509466658655   -1.20910914182947    0.09570115587963
C        31.32518920942040   -2.46808611432105    0.26838867385110
C        30.35850910840570   -3.41378936534111    0.26026201779706
C        29.11444221573571   -2.72464951085432    0.09304668041906
N        29.31544338017712   -1.37225938839503    0.01990615220731
C        27.90181603820871   -3.36987675114870   -0.03421364467451
C        26.69893486992250   -2.70634839120483   -0.16008125479994
N        26.51710159994267   -1.35082447316266   -0.09046790240249
H        25.33087919341207   -4.44137885001806   -0.40553922886483
H        23.42832051520384   -2.52399261347058   -0.41892888088448
H        23.47516571200203    2.64090522281215    0.39085494606361
H        25.40253194079762    4.53154374046413    0.29962541399695
H        27.95790756739393    4.49652534843529   -0.12102923543700
H        30.52137311174213    4.48266457704911   -0.50326991073924
H        32.42389175535099    2.56498929981633   -0.48313579597904
H        32.38463964714760   -2.58555404060223    0.38533913593571
H        30.45629757074900   -4.47760575402184    0.35685987040671
H        27.89313185051154   -4.44916471400874   -0.03208020302883
