76
 energy: -136.218090264293 gnorm: 0.000845569991 xtb: 6.4.1 (bd6e46d)
Co        7.94814861829850   -0.05188690316406    0.00336574753820
C        10.42245846043089   -3.47841363315348    0.07508439483833
C        11.38112258946776   -2.52495108561852    0.06242180147783
C        10.69926848070441   -1.26711088386032    0.03519385561741
C        11.37159825778308   -0.04355355419017    0.02637211859488
C        10.69207823002530    1.17627461473736    0.02765881358961
C        11.36747871537323    2.43805964654855    0.04402449123231
C        10.40396415167977    3.38634147660374    0.06983406720127
C         9.15129788796200    2.69382814260042    0.06334999553615
N         9.33877397892524    1.33671750940759    0.03532110431934
C         7.93542797340880    3.34213388653538    0.07778239012092
C         6.72500411436564    2.68498935271099    0.04152180469017
C         5.46359671370860    3.36652292063926    0.02713503225185
C         4.51205160016469    2.41042551694380   -0.03833944333049
C         5.19939045457580    1.15192764551249   -0.05650752400760
N         6.55350907370311    1.32954763473649   -0.00630040970986
C         4.54703777203120   -0.06101572512369   -0.10948869665026
C         5.20640534768582   -1.27122441509064   -0.09567971240348
C         4.52711392524971   -2.53384218867636   -0.12075761215037
C         5.48408891484276   -3.48543857816447   -0.06981813634454
C         6.74072723931716   -2.79686274744903   -0.02034204108536
N         6.56107332158927   -1.44180703478860   -0.03785352417068
C         7.95405347049327   -3.44749820125472    0.03058672258254
C         9.16620992479613   -2.79268165028301    0.04987741356240
N         9.34699954325901   -1.43452401433255    0.02848259603827
H        10.53298326485007   -4.54522671226037    0.09602221294007
H        12.44785886378258   -2.63662168173094    0.07103497336390
H        12.43351462561991    2.55601555869938    0.03860482080422
H        10.50886418296814    4.45356988221969    0.08928488928103
H         7.93255856137235    4.42113570873498    0.10797812353896
H         5.34933227697885    4.43276130104906    0.05990832835617
H         3.44522154673276    2.51943481482893   -0.06955212154929
H         3.46857276955824   -0.06325487762851   -0.15198072991850
H         3.46145856878575   -2.64883177888993   -0.16749489813383
H         5.37651501518954   -4.55284448524254   -0.06719724370029
H         7.95671298384682   -4.52685848800765    0.04574563648254
C        12.76988336560867   -0.03800644455885    0.03430599758819
C        13.98728031456027   -0.03740457328693    0.05618734875811
C        15.32983791276848   -0.02742056361785    0.07648672229609
C        16.54706557868637   -0.02232460074460    0.10750659318295
Co       21.34786296270172    0.05507975984919   -0.01176331140536
C        18.87008196040609    3.42599805480764    0.46603833926637
C        17.91572199821883    2.47551143530504    0.33994795936461
C        18.60330082130771    1.23023850232783    0.18315456599824
C        17.94433410762000   -0.00106717660507    0.13023663295630
C        18.64236138886523   -1.21049468547837    0.18212092328897
C        17.99614982134773   -2.47770046201815    0.33834234547361
C        18.98130401811646   -3.39706347308240    0.45849194767249
C        20.21841726257817   -2.68724638287741    0.33575659868159
N        19.99789967544548   -1.34439239374355    0.17756737159161
C        21.44758538530032   -3.31066215921592    0.29027775952206
C        22.61749956737009   -2.64634189275091   -0.01232377785293
C        23.86473053806197   -3.31282515464059   -0.24917107287773
C        24.74492769332937   -2.35910071613517   -0.62500794589185
C        24.04020878743886   -1.11105480533168   -0.57596236632011
N        22.73732860268845   -1.29928899740322   -0.20969862158501
C        24.64583293497252    0.11082339308837   -0.78324312793948
C        24.00461086207464    1.31061456178522   -0.55502551522678
C        24.67166949251542    2.57976826030529   -0.58229573263993
C        23.75980328489727    3.50185240692086   -0.20281966289301
C        22.53167057501093    2.79493232793939    0.01596983012272
N        22.69449675978103    1.45435952827536   -0.19457581806077
C        21.33883891580740    3.41968843067507    0.31314767074469
C        20.12995421792818    2.75704695394500    0.34665943648396
N        19.95383549532795    1.40807391109784    0.18303459968185
H        18.75298316767808    4.48267427127568    0.60846989029946
H        16.84858789042528    2.58057954356437    0.36520255045425
H        16.93304918709724   -2.61750886621725    0.36733189516244
H        18.89922053290606   -4.45739986352845    0.59802857032867
H        21.48473018338381   -4.38050927491813    0.42881976251108
H        24.01629730634523   -4.37051262044361   -0.15236976150940
H        25.77799903009659   -2.46287417591011   -0.89527186124451
H        25.68674520770249    0.12861158075759   -1.06798537827429
H        25.70348820684356    2.71804941772184   -0.84186901180550
H        23.87802099284122    4.56245357180567   -0.09232233478117
H        21.34071266385103    4.48938335055069    0.45798267963074
