119
 energy: -217.155619300937 gnorm: 0.000599029941 xtb: 6.4.1 (bd6e46d)
Cu       11.91283208037465   -0.00429899781986   -0.00763797653477
C        14.43785675479922   -3.43163170645424    0.01862279981234
C        15.39129394259620   -2.46988086791532    0.01811033490691
C        14.70332985444104   -1.21077232860732    0.00821560153210
C        15.35126873596978    0.03371516793197    0.00130020740614
C        14.67619619759124    1.26344181968437   -0.00695940609818
C        15.33639279728268    2.53734400871427   -0.01221272936016
C        14.36210305989901    3.47794230757995   -0.01556386322730
C        13.11001145889669    2.77660298598750   -0.01281779535350
N        13.33473193130523    1.43439924762445   -0.00825604637700
C        11.87398401214426    3.39800543677216   -0.01325291349015
C        10.65306400137218    2.74722309406688   -0.01248943629510
C         9.38063383619995    3.41660700519351   -0.01326468423081
C         8.43299685749969    2.45152919455003   -0.01647949185686
C         9.12533174353924    1.19129189260338   -0.01754742931695
N        10.46554366219337    1.40318258240529   -0.01391530475008
C         8.49746008959023   -0.04201914914916   -0.02445581599195
C         9.15228126656619   -1.26125500961742   -0.02441789481917
C         8.48794391187527   -2.53654414872656   -0.03291337635472
C         9.45661367520595   -3.48047739949702   -0.02524121377820
C        10.71392677100012   -2.78309332331684   -0.01244038504827
N        10.49679373804559   -1.44351426881682   -0.01338210889165
C        11.94887068195362   -3.40662567766480    0.00041340494609
C        13.17077353330663   -2.75798788919702    0.00846579648393
N        13.36595332527010   -1.41114052163713    0.00345816570182
H        14.56203434940313   -4.49720169425083    0.02462408659232
H        16.45828978685192   -2.58076696472115    0.02344931225569
H        16.40075884733266    2.67139216027826   -0.01264073047344
H        14.46276318993060    4.54596676431041   -0.01978342012190
H        11.86243285237114    4.47847031301749   -0.01480004879509
H         9.25375772535097    4.48206488947401   -0.01183782557157
H         7.36537578474139    2.55886507331358   -0.01795458308886
H         7.41725192407025   -0.05389310648912   -0.03025996062722
H         7.42298594744500   -2.66751362684233   -0.04352695926409
H         9.35333253504469   -4.54854285157944   -0.02812727558417
H        11.96131950545766   -4.48707758201091    0.00302695076092
Cu       43.93798359115731    0.02486542878270   -0.00595279403796
C        41.42436371469996    3.40258890536240    0.62374835865834
C        40.46776920068587    2.46005167659766    0.44894931369549
C        41.15155584957377    1.21962696493330    0.21999152668156
C        40.49955159115168   -0.00277773477626   -0.00107601223366
C        41.17045207240600   -1.21481869124764   -0.22194693872978
C        40.50592562053456   -2.46643317121104   -0.44685917767808
C        41.47699410813043   -3.39426422784348   -0.62053045858641
C        42.73142590017139   -2.70743632827653   -0.50140107286911
N        42.51129574746620   -1.38649552906258   -0.25921390204181
C        43.96524569156582   -3.32184188374469   -0.61961317470962
C        45.18831390470071   -2.68472119864051   -0.50890627398989
C        46.45849350085484   -3.34645020320044   -0.63535975807020
C        47.40936041275591   -2.39925332854896   -0.46781408502316
C        46.72127035962020   -1.15764477460841   -0.23863438640340
N        45.38037103892362   -1.36290766263079   -0.26909878035874
C        47.35324658831613    0.05434806094973   -0.02189499588501
C        46.70258223992930    1.25494830842176    0.20265981153928
C        47.37127873903867    2.50774973082639    0.42839043634995
C        46.40584007698948    3.43766174354227    0.60891768908000
C        45.14611686766354    2.75438490734215    0.49256032380393
N        45.35867407438247    1.43678367411414    0.24701560253218
C        43.91329541602494    3.37036937282360    0.61436345703800
C        42.68919354721444    2.73615442900818    0.49995255926434
N        42.48958153374794    1.41238992631971    0.25516765342681
H        41.30376272906089    4.45077783011080    0.81770312662161
H        39.40114448030273    2.57260800302372    0.46911851444533
H        39.44107430396013   -2.59576281786947   -0.46498793199887
H        41.37261901691301   -4.44480872059877   -0.81152340717055
H        43.97309061307325   -4.38470990028108   -0.81400136519130
H        46.58178569760077   -4.39506299100770   -0.82662386183032
H        48.47662504116838   -2.50758413924860   -0.49232244639004
H        48.43347988299270    0.06377355354599   -0.02757480112708
H        48.43669544006238    2.63465610022357    0.44223400723085
H        46.51280136388296    4.48767902487870    0.80229594775777
H        43.90457410931681    4.43255482627405    0.81240992092566
C        16.74792364579805    0.04774225897919    0.00230918450697
C        17.96797191444310    0.04923137773222    0.00246511899647
C        19.30405181398180    0.05228497890489    0.00132443026204
C        20.52847327375716    0.05909577836720    0.00618868085305
C        21.86438296198721    0.05658556632718    0.00583120953374
C        23.08455217312885    0.05823703130673    0.00203555138966
C        32.76606764872660   -0.01304566791781   -0.00858567909783
C        33.98627075345632   -0.01616461288350   -0.00530802213688
C        35.32225972901555   -0.01826000833511   -0.00341623689521
C        36.54667945285954   -0.01783446684492   -0.00075328096668
C        37.88282023519739   -0.01462605600341   -0.00071307227262
C        39.10277799300371   -0.01284972831654   -0.00080537790745
Cu       27.92525595617090    0.02165132358058   -0.01247286813076
C        25.41187994178936   -3.38946836177684    0.39842844338573
C        24.45306760619944   -2.43810707810735    0.29801220687138
C        25.13430466072398   -1.18499167517708    0.14270485158889
C        24.48046386698153    0.04845880178642   -0.00257705852857
C        25.15237457279618    1.27124865809085   -0.15353154395965
C        24.48967746826937    2.53435506993321   -0.30767958680160
C        25.46246869043055    3.47024508228609   -0.41868115071847
C        26.71534014141409    2.77622814610346   -0.33120100878500
N        26.49303138405085    1.44306028140641   -0.17267068587558
C        27.95038736114913    3.39593650965517   -0.39375577536620
C        29.17601360299613    2.76017992547312   -0.31062733918913
C        30.43900262239267    3.43835274978592   -0.37254045722881
C        31.39772634595887    2.48794071975354   -0.26284261663701
C        30.71633660305358    1.23173989960447   -0.13557326744652
N        29.37844451978643    1.42239064250619   -0.16470615918943
C        31.37007140805871   -0.00392671305621   -0.01111428997044
C        30.69817254772320   -1.23005712620726    0.10951301630222
C        31.36078602493393   -2.49671535908641    0.23154398416459
C        30.38798524111027   -3.43346962611756    0.33492737468628
C        29.13523117344403   -2.73628004700118    0.27607689271172
N        29.35756672650962   -1.40103603813794    0.13647588114893
C        27.90029949058360   -3.35374631550045    0.35876477153626
C        26.67476988462253   -2.71473613343917    0.30479500176238
N        26.47216975156620   -1.37771152503483    0.15241026850661
H        25.29360226252341   -4.44828477651644    0.52419305834226
H        23.38672100590964   -2.55257688091142    0.32369619670413
H        23.42503323309935    2.66525317422995   -0.32615018854803
H        25.35991673118413    4.53035297115705   -0.54722290489119
H        27.95847324553855    4.46963996353897   -0.51647391994706
H        30.55738203965922    4.49863175639202   -0.48482209966326
H        32.46408879877342    2.60474064044395   -0.26636071237176
H        32.42538463517760   -2.62923513745451    0.23526445558754
H        30.49049087034635   -4.49610753865390    0.44118730204999
H        27.89220890497211   -4.42801507094047    0.47641791200190
