296
 energy: -537.694387846018 gnorm: 0.000865295560 xtb: 6.4.1 (bd6e46d)
Co       60.83229045590250    0.28010687448116    0.44703209561062
C        63.40172438099739   -2.44616594203091    2.33748530193316
C        64.30704342911176   -1.79097236777685    1.57375615327465
C        63.58121253826950   -0.79372401610206    0.84889686011470
C        64.19728003696936    0.17287645868285    0.04557633176391
C        63.50393923401727    1.31568087767354   -0.36783643137862
C        64.14921670658262    2.47853928722502   -0.89456554745728
C        63.18652248072124    3.41817832427875   -1.04410015562333
C        61.95342904580377    2.80306147083079   -0.65625223885544
N        62.16623775419779    1.52077848824649   -0.22356932315863
C        60.71852803969281    3.39393913091252   -0.82797578484405
C        59.53198240756825    2.70481064413817   -0.67822280726068
C        58.25715316334890    3.21830137531431   -1.08700026070616
C        57.36690212987015    2.21436191270931   -0.92300935774098
C        58.09369057642814    1.11046388202292   -0.36632166866549
N        59.41763601108346    1.41842250668808   -0.23253611480631
C        57.49663498277770   -0.05175341491383    0.07913648580515
C        58.17172315954588   -0.99232930033277    0.83085889014701
C        57.52532383624898   -2.07308686858753    1.51705011768340
C        58.47341046333926   -2.67218910888879    2.27169777278057
C        59.70355650551927   -1.98670018791990    2.00236810062028
N        59.50515528965509   -0.95808006085491    1.12534528090474
C        60.92923224411619   -2.39415874209412    2.48917861182283
C        62.12412036278312   -1.87627876977922    2.03386448030666
N        62.25240322934485   -0.84861099640041    1.13704163169347
H        63.56198004797605   -3.25201992737548    3.02702232537395
H        65.36974656258467   -1.92526265155651    1.52448337216601
H        65.20278933657538    2.55819338755111   -1.07665148807347
H        63.28002245604067    4.42531427996280   -1.40123454996003
H        60.68156278465619    4.41230798358291   -1.18406734251063
H        58.09356957775172    4.20833746664896   -1.46667652882503
H        56.31399025254615    2.20745074715332   -1.12876485712482
H        56.43838076390009   -0.18504698879451   -0.08588141578850
H        56.48141806353283   -2.30697090222172    1.43615407800654
H        58.37683569877567   -3.51035194461430    2.93443657611294
H        60.95878548347920   -3.21623745899109    3.18806478430321
Co      134.63430346863930   -0.21908214311930    0.44745689607904
C       132.00503478079241    2.34264000489193    2.47838707655285
C       131.12496703156233    1.75520250039583    1.63416895337481
C       131.87404244328224    0.81692226783631    0.85558533023130
C       131.28226034722496   -0.08894919232506   -0.03240607748091
C       131.98916884668930   -1.19795685893695   -0.50931977129891
C       131.36276654174512   -2.32090894736574   -1.13544657817437
C       132.33447928362978   -3.24173167762908   -1.33550347846572
C       133.55542897047570   -2.65091001256366   -0.87777051644735
N       133.32475658334135   -1.40699826043896   -0.35215288218692
C       134.79861119286292   -3.21563325572275   -1.07582112507257
C       135.97553725569753   -2.52981450680401   -0.85203918857409
C       137.26145876223333   -2.99466050974982   -1.28327985327783
C       138.13902650393456   -2.00099745330451   -1.01875376085413
C       137.39309924544304   -0.95631855507620   -0.37935608046047
N       136.06995036606187   -1.28551090219706   -0.29599412932249
C       137.97309072605384    0.16301766622841    0.18316033654156
C       137.27696844748218    1.02581206660353    1.00583219195293
C       137.90141646076569    2.03865984848736    1.80635756786614
C       136.93221995370803    2.56277431428130    2.58958794288639
C       135.71185586813397    1.90405259752131    2.22549382399357
N       135.93718140403780    0.96095743457521    1.26317176961502
C       134.47129510579663    2.26829262280220    2.70910394123189
C       133.29183180080122    1.79561706588091    2.17155913450753
N       133.19292913106980    0.84585830063162    1.18915113497836
H       131.82205209399112    3.08981014087779    3.22593895975430
H       130.06462067276837    1.89742394127456    1.56004216635958
H       130.31398132213067   -2.39113842319985   -1.34629709070936
H       132.25467016074867   -4.21931491998941   -1.76974232222098
H       134.85152423397267   -4.20138080838471   -1.51249274705472
H       137.44089249073156   -3.94648864678605   -1.74464311789037
H       139.19482391117336   -1.96715217804534   -1.20616935785937
H       139.03346116411743    0.31631668063972    0.05276725651322
H       138.94601092204766    2.28111463965629    1.77445535979682
H       137.00886250357468    3.33541026657971    3.32999156197746
H       134.41900973570463    3.02546915032181    3.47663933086489
C        65.55166198886114    0.03269095878970   -0.27132192478613
C        66.71281627084362   -0.12759407488888   -0.58826689663504
C        76.02908948238060    0.02712359552730   -0.04381937881890
C        77.15138184512843    0.24186474233161    0.36877967667886
C        86.44687708965807    0.47992582840318    0.43649165666302
C        87.58397162180817    0.29701541589579    0.05055514153608
C        97.01882944576030   -0.25370097384862   -0.68345339354840
C        98.22863828335403   -0.23948379586755   -0.59877518735308
C       107.79268487000121   -0.38692517946372    0.62896745273982
C       108.99175116288643   -0.40903585390389    0.81198315904650
C       118.35934518465747    0.35588121817661    0.21216538672161
C       119.48113258185847    0.53871192893335   -0.21599817103829
C       128.78430456612895    0.27299607281320   -0.70135518109662
C       129.93633620339011    0.07652336273062   -0.37209820626534
Co       71.42723500415681   -0.49464574395456   -1.16678796095073
C        68.93683151751232   -3.64945647240795   -0.01659462489884
C        68.00887976437997   -2.66778143242351   -0.11619638387676
C        68.70795319165281   -1.48726970243265   -0.52077315994396
C        68.06828865676270   -0.29417358550324   -0.88255158546200
C        68.74267427354869    0.67853325951373   -1.63143943449283
C        68.08005427961092    1.71714814838997   -2.35777210952915
C        69.03098377648551    2.33804771197168   -3.09587817876749
C        70.27480766695136    1.71079698753135   -2.76856803734849
N        70.07898419753582    0.68296353820545   -1.88502093187897
C        71.50653382621175    2.18011814880374   -3.18046746517799
C        72.69508283554430    1.74298145284965   -2.63106778626932
C        73.95217819976342    2.40020098321336   -2.81979423942298
C        74.82782947633670    1.80875524884271   -1.97240439548675
C        74.11184517545375    0.75887020691197   -1.31572580250717
N        72.81494097991624    0.72516074918868   -1.72181875086672
C        74.71984395199387   -0.18631339474347   -0.47804369518344
C        74.07523524460380   -1.39265957200086   -0.17417422597689
C        74.75256156867255   -2.54196573326968    0.34178073958200
C        73.85354072344072   -3.55498124012115    0.33239933127338
C        72.61976152268122   -3.00062104085450   -0.13485968161883
N        72.77684717522320   -1.67876536499712   -0.45826136698234
C        71.41615476448520   -3.67668442801543   -0.12256737141654
C        70.20164529005541   -3.04565385280378   -0.30552284470006
N        70.04171146525371   -1.72597405045681   -0.63577194134575
H        68.79819460382326   -4.67938089274594    0.24912150586610
H        66.94713863207544   -2.72943068144040    0.02082337913384
H        67.02392077514845    1.89979766699220   -2.32969672574157
H        68.92123582256397    3.15721795837948   -3.77960814433818
H        71.53551451595507    2.99992239123617   -3.88224826961890
H        74.11930136421378    3.21742322254302   -3.49415601312010
H        75.86911446582596    2.01910618066566   -1.82637567943134
H        75.78687868910971   -2.56240614167361    0.62367575437583
H        73.98975706724191   -4.57590690013757    0.63197944074189
H        71.41603304093037   -4.72147520028263    0.14919503391586
Co       81.78075735543779    0.81429510146424    1.30593033920837
C        79.38340974587457   -2.14512625430185    3.02863087578892
C        78.46190528782776   -1.55892613718169    2.22712656960468
C        79.12832624560271   -0.48320932718091    1.56067921789203
C        78.46780681793531    0.46880930834532    0.77234470272834
C        79.07599369482796    1.69708989455987    0.47766448659202
C        78.35464576839733    2.85216498456555    0.04043392821932
C        79.23995750885449    3.87753510283627    0.02984441331106
C        80.50650329125052    3.32652479840182    0.40396019669526
N        80.38387409980454    1.99412913306126    0.69787820099452
C        81.70165597055767    4.01341788386886    0.32432610803123
C        82.93006265957334    3.38807432146493    0.40907429665109
C        84.16804554907584    4.00203006765522    0.03750543310030
C        85.10566291693303    3.02464004350743    0.06101036310381
C        84.44405093766106    1.83668552082381    0.50410218811886
N        83.12008100267694    2.06583938216384    0.71212713391301
C        85.11429161636936    0.64680655158389    0.81816741343589
C        84.49571661524305   -0.33314820659111    1.60692958018507
C        85.21129866535640   -1.36184446712481    2.29650698900747
C        84.31009691593013   -1.99581017801098    3.08460734195852
C        83.04151524413848   -1.38683703185314    2.82479468059084
N        83.17645519159342   -0.35427660963992    1.93466870169273
C        81.83859338846261   -1.88018930796349    3.29019173723300
C        80.61847281818653   -1.45987867540295    2.79874760900101
N        80.44049647327985   -0.43100188438607    1.91225910592467
H        79.26056114582639   -2.97609658981969    3.69570792021315
H        77.41994633947344   -1.78826296596875    2.11956346239435
H        77.30470118221362    2.86767104585617   -0.17712067659753
H        79.07270754333140    4.90524775946943   -0.22777392275506
H        81.67546706293165    5.06306340546944    0.07336517277378
H        84.28264419929921    5.03508178185017   -0.22759549202861
H        86.15426433882209    3.09330890908767   -0.15178678009768
H        86.26719579957506   -1.52940265209510    2.21347359374300
H        84.46840868495521   -2.81299517353536    3.76116515179059
H        81.85610783064566   -2.70700379271099    3.98411334930847
Co       92.22928484422587   -0.27449804719398   -0.96154065843092
C        89.67380696545329   -3.31789511705624    0.39163074746496
C        88.79197841659790   -2.29118550475421    0.37361859368009
C        89.51565868963526   -1.14232827732085   -0.07712304463179
C        88.90811753312731    0.09055582413195   -0.34414516994985
C        89.57142117643706    1.07389745310531   -1.08711521202530
C        88.90650749890949    2.20008749887584   -1.66633718675545
C        89.82393261276822    2.83643367875944   -2.43158382745309
C        91.05279083574388    2.12042877519080   -2.27264974928179
N        90.87938284810342    1.03196162578980   -1.45879904791301
C        92.25934824099602    2.55069073416484   -2.78383637171058
C        93.46950421630507    1.98584984534944   -2.43646130679382
C        94.73617331790965    2.55983949659460   -2.77509994402071
C        95.67623280008966    1.81871608211251   -2.14362361148947
C        94.97683069403317    0.77424124560694   -1.45938125920765
N        93.63176845888624    0.88392368898651   -1.63956671004741
C        95.62302481953098   -0.27726235920445   -0.80277641845394
C        94.92370192166297   -1.41108175668546   -0.37880572899712
C        95.56670128220989   -2.60224601996906    0.08548217464187
C        94.59332809116260   -3.53049108042676    0.23509950011319
C        93.35930527663096   -2.88158331498540   -0.08739722228644
N        93.57517249764082   -1.58243091200047   -0.46168071215810
C        92.12335544296614   -3.47594551268155    0.06649940818815
C        90.93819733638455   -2.77454539581988   -0.00120974495900
N        90.82128323005763   -1.44429541699832   -0.30891465205418
H        89.50751577878835   -4.34234310681954    0.66249599378565
H        87.74373493895665   -2.29903154833323    0.59877720840434
H        87.86842007405072    2.42929761143183   -1.52791597852709
H        89.70334204005270    3.71563186268361   -3.03409884022215
H        92.26557896917780    3.42526881653630   -3.41666860476716
H        94.86729670604507    3.42389837496782   -3.39701675984221
H        96.74279089847388    1.93149076319744   -2.15183075748639
H        96.62036063439319   -2.69614765237382    0.26015450227072
H        94.68033200045895   -4.55046695944933    0.55544344190742
H        92.08728789650461   -4.51846280766873    0.34439960757520
Co      103.03341180745244   -0.30728007341332   -0.16835666173206
C       100.56993464166302   -3.68103819081291   -0.75366695063320
C        99.62094603203374   -2.71840796218119   -0.78785443244219
C       100.29365933586367   -1.47754307465163   -0.55126957787964
C        99.62673614478187   -0.25156771965827   -0.49930298863579
C       100.31599426827906    0.95708694875837   -0.39124645333486
C        99.66127353719155    2.22966778643729   -0.41305247794792
C       100.64000897058970    3.16276833661619   -0.39470503571344
C       101.88031386466970    2.45000584959797   -0.34024603909552
N       101.66985603182380    1.09680526258421   -0.32611732105278
C       103.10830389256552    3.07486846775548   -0.31150188301587
C       104.30292369193702    2.40223894892663   -0.17398875950048
C       105.56880857856609    3.06563753912770   -0.09199608684945
C       106.49297654735638    2.10350709059753    0.12946965624404
C       105.78164724960605    0.86215315315174    0.17371993514482
N       104.44730895260206    1.04760431655702   -0.02778034819055
C       106.41023824778176   -0.36414510675581    0.39995980114051
C       105.70685006584301   -1.56979736527573    0.36450249906447
C       106.33319429649615   -2.84040500915527    0.56616952455094
C       105.38142410748945   -3.77596395145276    0.34910891716096
C       104.17925288768315   -3.06533108508239    0.03677607201124
N       104.38445027940128   -1.71131365942631    0.07008084592086
C       102.99204137767224   -3.69218329060487   -0.27257541675914
C       101.81006804693116   -3.01822331029554   -0.48735423663863
N       101.63332714248078   -1.66270108609410   -0.39173182517953
H       100.46134912758465   -4.73994183350299   -0.88562879834193
H        98.56914068957731   -2.81316239674615   -0.97278177635147
H        98.59754347667985    2.36406868597082   -0.44115623803866
H       100.55231940852430    4.23173003787430   -0.40947913089310
H       103.13402562394424    4.15229448535633   -0.37415941256859
H       105.70865010590323    4.12489695311234   -0.18674456967625
H       107.55502267754194    2.19895787627415    0.24454785753113
H       107.36013436832474   -2.97250771406854    0.84335222255919
H       105.46221989593087   -4.84446804247430    0.39697796264117
H       102.98155735520511   -4.77047826471567   -0.32280764316285
Co      113.75312615240040   -0.31059915244941    1.29029132063916
C       111.51618466524255   -3.72096701930112    0.32882380995845
C       110.51860148760498   -2.80626777325240    0.34801494801668
C       111.11519515190149   -1.56103642083238    0.72240742207775
C       110.37649401648861   -0.41136704151646    1.02053205113665
C       110.97400097381903    0.69463879293957    1.63469204435210
C       110.22925520202651    1.75893619873373    2.23524136277857
C       111.13060010568238    2.55426204749610    2.85806920365199
C       112.42097236014118    1.99560878654527    2.59086091836954
N       112.30866456706964    0.84660754326943    1.85393507273977
C       113.60790075171028    2.61747910164322    2.92238019003493
C       114.83300990582028    2.20143387917431    2.44269920287790
C       116.03268764176050    2.97495263811928    2.54596089174184
C       116.97089311091362    2.32966718330620    1.81350054362598
C       116.35130880568538    1.14052586164812    1.31590724389006
N       115.04806361679449    1.07105014060723    1.69953606803128
C       117.04980398942455    0.13139677072563    0.64279772169843
C       116.49378815660353   -1.14493289255424    0.48636185196634
C       117.26402271923388   -2.30143285585005    0.14529615651635
C       116.42567159936986   -3.36097388994439    0.23375415019226
C       115.13923717537553   -2.83474116019028    0.57463908619784
N       115.20250349881218   -1.47730305073308    0.75141140416089
C       113.97918194726765   -3.58085801967028    0.56381109055881
C       112.72244291538297   -3.01342191321220    0.63202206504634
N       112.46219738788800   -1.69114772032145    0.87318986498266
H       111.46293731858691   -4.76874879680120    0.10554844640259
H       109.47560181278656   -2.94304536002562    0.14235997790742
H       109.16082908923021    1.84739863291514    2.20231977138469
H       110.95833233036487    3.44689140040472    3.42737836010356
H       113.56547677517548    3.52769782399216    3.50124668742111
H       116.12076642108420    3.89579179413658    3.08898455968979
H       117.99673333688659    2.59404471553455    1.64887089946332
H       118.31138586479673   -2.28854552793107   -0.08449143122783
H       116.63500073728071   -4.39920854915499    0.06410416556916
H       114.05342342137982   -4.64349888157846    0.38872454086647
Co      124.09913240033659    0.84511907145877   -1.33576573309219
C       121.46228823337889   -1.97991291195340   -2.93067060812219
C       120.61127464737018   -1.33664495007308   -2.09586648144723
C       121.36762431685978   -0.29858039656462   -1.46575050652859
C       120.79525947927723    0.69607947052658   -0.66097657946624
C       121.48539031285360    1.88604562292596   -0.39668445979720
C       120.85395241911706    3.08012205329368    0.07275241929116
C       121.79760811455532    4.05139758050684    0.04576206635781
C       123.01193898727814    3.42752287989056   -0.38340827052637
N       122.79872898890302    2.10551736133742   -0.67179891172701
C       124.24704998498379    4.04412802236965   -0.35727218381482
C       125.43225249601865    3.34947626315162   -0.49690644264158
C       126.71901267441726    3.89269582943011   -0.18565654596751
C       127.59886851403149    2.86501769626022   -0.25308918733095
C       126.85068716503829    1.71604375200126   -0.66162088842760
N       125.53284879363268    2.01886436609213   -0.80603823805734
C       127.43991343062375    0.49353805070796   -1.01058482221960
C       126.73144648668205   -0.45225383769852   -1.76232107646009
C       127.35356289311133   -1.52456834296763   -2.47500739968666
C       126.38143200752698   -2.11262155431893   -3.21237281358729
C       125.16305562853877   -1.43139586610201   -2.89739031047304
N       125.39787320742111   -0.40247899063509   -2.02425533905347
C       123.91385430708283   -1.85860333392839   -3.30217815814944
C       122.74369219977623   -1.36652796533622   -2.75918536063977
N       122.66448560948740   -0.32478064769098   -1.87319087016124
H       121.26270744419715   -2.80544704955867   -3.58580908488577
H       119.56303132855918   -1.50436397511161   -1.94372153130852
H       119.81813421849446    3.15516875679161    0.33900266691005
H       121.70319191671497    5.08626670607234    0.31165983944206
H       124.29274717346333    5.09320236310522   -0.10675924834427
H       126.90352279161711    4.91753439487394    0.07170128174492
H       128.65898795276979    2.87517869577718   -0.09138930184362
H       128.40058062873746   -1.75198349260889   -2.43763467845282
H       126.46047531970039   -2.94256510485474   -3.88730777609474
H       123.85226169306107   -2.68865527431307   -3.98962883974282
