78
 energy: -139.368233684054 gnorm: 0.000850113562 xtb: 6.4.1 (bd6e46d)
Fe        6.75624998861863   -0.05401640410213    0.02337478452192
C         9.23665646137838   -3.53325207214968    0.10353827803930
C        10.16065933964540   -2.54548664816493    0.14913792256651
C         9.44118665196535   -1.30482297737463    0.12073374223718
C        10.08563968868723   -0.06188186655650    0.13622296937636
C         9.44768875722325    1.18396501447923    0.09336156955548
C        10.17407780665701    2.42095886104782    0.08944969179375
C         9.25482245916357    3.41309521874539    0.04366437669817
C         7.97256548426473    2.77685836627714    0.02276762223574
N         8.10475211256732    1.41535109692440    0.04979335096200
C         6.76493343776323    3.44457432615473   -0.00636732792805
C         5.55495603811578    2.78128198827345   -0.01346796963564
C         4.27012320838805    3.41773081026735   -0.02797464837593
C         3.35197360716572    2.42542668436579   -0.03308299580587
C         4.07847868028264    1.18557173908891   -0.02450844701714
N         5.42452059565073    1.42230726794838   -0.00895916966838
C         3.45374722105995   -0.04603620809016   -0.04449305161967
C         4.07325374277778   -1.28048717362023   -0.05045917966969
C         3.34157387246207   -2.51645138198122   -0.08890529513080
C         4.25493367425827   -3.51315138892496   -0.08351834737445
C         5.54219526330431   -2.88317209298460   -0.03893705264329
N         5.41786287074929   -1.52368267913427   -0.02203090358541
C         6.74842223833091   -3.55254522181069   -0.00478450568043
C         7.95864709884519   -2.89082848956911    0.05051880682992
N         8.09764081303241   -1.52995415395708    0.06324463847371
H         9.38790309087457   -4.59505535767779    0.10546070108181
H        11.22909181924289   -2.62853789555684    0.19580931567518
H        11.24351803767065    2.49894276392383    0.11710476670581
H         9.41184263329139    4.47406106277370    0.02624086471721
H         6.76884481608217    4.52361473740512   -0.01905810727364
H         4.11522293006482    4.47941372427044   -0.03281335507221
H         2.28142400010802    2.50156545812930   -0.04333772684653
H         2.37318939908372   -0.04343905076101   -0.06280551234803
H         2.27121527300600   -2.58719300572367   -0.11675731703487
H         4.09538427920149   -4.57383081654875   -0.10571889200862
H         6.74692342167200   -4.63160088851802   -0.01658174916386
C        11.48533824553142   -0.06388177545855    0.18706678421096
C        12.70378517133682   -0.06254570290318    0.22724438448028
C        14.04084123786398   -0.05554370453415    0.25613756833810
C        15.26406624707180   -0.04168572443038    0.27102678302961
C        16.60138235573051   -0.02651523847830    0.26619229093187
C        17.82028822954427   -0.00951395315725    0.24595709983487
Fe       22.54116050294392    0.05489852937662   -0.05300928928521
C        20.01505888444790    3.49399716529920    0.17440743899872
C        19.10588879836557    2.49199901150718    0.20514918006494
C        19.84321973255033    1.26286698341321    0.14889741197515
C        19.21967525603608    0.01005300048738    0.19109515989402
C        19.87901916134592   -1.22523469934447    0.17749063990858
C        19.17819274250038   -2.47299029837869    0.27511334962146
C        20.11259518371886   -3.45054860365454    0.21879891953152
C        21.37739177876543   -2.79482977501896    0.08211890778427
N        21.22148969189346   -1.43562345188684    0.06812434394510
C        22.58907808191713   -3.44322561091807   -0.04580314786005
C        23.77931129409573   -2.76045901020810   -0.19182646450135
C        25.06466507266672   -3.37604888326525   -0.35063823753803
C        25.96120530191808   -2.36900582042748   -0.45002581945402
C        25.22165339142298   -1.14120340499175   -0.34833042763241
N        23.88806060890803   -1.39956655864258   -0.19727468578779
C        25.82681424775943    0.09988507529965   -0.38124452347258
C        25.19578825899282    1.32360946901737   -0.27180619733380
C        25.90982910094009    2.57037388450000   -0.28902693348397
C        24.98832145371183    3.55174530375188   -0.16472886620140
C        23.71328259385300    2.90188084261441   -0.07677693541612
N        23.85384874606650    1.54523795536089   -0.13748781637045
C        22.50114099105795    3.55209577615266    0.03248751636776
C        21.30156074742380    2.87172301581526    0.09186483083988
N        21.18229318555838    1.50901866999771    0.07556597117779
H        19.84864435791070    4.55331986180896    0.20167343086065
H        18.03693033910487    2.55802283843029    0.26484651352723
H        18.11428239510679   -2.56732405912726    0.37757714069987
H        19.97605724413776   -4.51360137505607    0.26212623056811
H        22.60368062374046   -4.52220077497987   -0.03885685231310
H        25.23397650313009   -4.43516869714588   -0.37949389232946
H        27.02505947061044   -2.42781883020320   -0.57771701152447
H        26.90141342372352    0.11456073986443   -0.49518698356273
H        26.97507830486181    2.65791690495727   -0.38323333310973
H        25.13448849677964    4.61420266274568   -0.13620081108594
H        22.48809472692908    4.63074809539509    0.06298926530460
