296
 energy: -512.844163328559 gnorm: 0.000358197602 xtb: 6.4.1 (bd6e46d)
Zn       59.58502838673392    0.06499269212669    0.00204950209220
C        62.07279100128866   -2.90459988059491    1.79228172461138
C        63.03820371058574   -2.09567595698010    1.29319531498242
C        62.36616982295668   -1.00259004639890    0.64981002130635
C        63.02012041793046    0.05458645253532   -0.00070629083559
C        62.37146149729136    1.11621702343575   -0.64922207316626
C        63.04913142960431    2.20533241709335   -1.29342517255191
C        62.08785952945674    3.02011807844620   -1.79095311389515
C        60.82569677818068    2.42956697056519   -1.44583076714646
N        61.02985275124979    1.27523562132406   -0.75161740771877
C        59.59279239538063    2.96913256882534   -1.77296868949062
C        58.35765579771587    2.43565747974628   -1.44506625227841
C        57.09315183210614    3.02192083639209   -1.79852231271678
C        56.13366004194437    2.20865624448597   -1.29906414389485
C        56.81117241776588    1.12487624965221   -0.63957239016695
N        58.15572897917065    1.28912827604285   -0.74410330710022
C        56.17644638134587    0.07456523091704    0.00321427211224
C        56.80598575687357   -0.97920217378143    0.64548539382916
C        56.12291241075837   -2.05943104707681    1.30503269503325
C        57.07820329232464   -2.87811334935651    1.80370815354851
C        58.34568351067313   -2.29865941029859    1.44981800594860
N        58.14968769457831   -1.15082742490467    0.74923069462427
C        59.57800595436002   -2.83910511564290    1.77689575807252
C        60.81370520525476   -2.30654360252860    1.44887766008527
N        61.02379890319094   -1.15339011850464    0.75444123073127
H        62.18757860849387   -3.82129084174537    2.33800386806569
H        64.10293710118022   -2.21922657600732    1.33621806079033
H        64.11453804199759    2.32245567475342   -1.33796924702366
H        62.20733602156373    3.93611400197525   -2.33682990014735
H        59.59623558490196    3.89357960999732   -2.33364096659147
H        56.97504571688616    3.93259691764600   -2.35390715081344
H        55.06767655024230    2.31606824115461   -1.36091432974805
H        55.09543329078646    0.07740625406280    0.00360613297755
H        55.05638830121330   -2.16102504760403    1.36732339129670
H        56.95538059286738   -3.78836104161068    2.35876319879352
H        59.57658322973679   -3.76376620441556    2.33723799644667
Zn      135.86601090737753    0.02936873526960   -0.01446128117278
C       133.36804088251648    1.18687836729536    3.24540115534764
C       132.40541727314178    0.85348215487766    2.35229931494835
C       133.08047808155581    0.44877359497946    1.15205268818528
C       132.42935361424369    0.03059594391174   -0.01867496240030
C       133.08285640558901   -0.38959390372364   -1.18735855782974
C       132.41045809490467   -0.79599928057128   -2.38853065552216
C       133.37507586905295   -1.13111479496728   -3.27886783691215
C       134.63435870526081   -0.92288305271617   -2.62199192925109
N       134.42507990090931   -0.46904112615878   -1.35450312982947
C       135.86932406504346   -1.15186054379250   -3.20566993093155
C       137.10249479127842   -0.94350896418492   -2.61109164278814
C       138.36909328759802   -1.18760661055376   -3.24645382391371
C       139.32560941086891   -0.85416335378410   -2.34900346178384
C       138.64415139930995   -0.40593886307048   -1.16443866141025
N       137.30021189439961   -0.47274866420776   -1.35172272638045
C       139.27523056431266    0.03059605857544   -0.01098893769424
C       138.64175383366126    0.46613621670577    1.14148361469264
C       139.32053818814262    0.91383845314305    2.32780446314866
C       138.36199875832406    1.24564102449708    3.22368596646982
C       137.09684324580579    1.00133868587132    2.58549955834744
N       137.29739652126682    0.53183413105635    1.32615843624810
C       135.86232619696295    1.20850033206130    3.17765535453732
C       134.62877687452379    0.97959626009415    2.59101424470921
N       134.42233142012071    0.52742049401624    1.32247669319354
H       133.25041800857690    1.53637410317468    4.25302400096778
H       131.34075174336158    0.86131212288799    2.48256161666626
H       131.34605656788540   -0.80419147346447   -2.52100360595713
H       133.25960553914666   -1.48236430116392   -4.28614432690210
H       135.86936930756346   -1.52367914443917   -4.22092815176435
H       138.49060449538041   -1.56310235823402   -4.24443470661112
H       140.39197463861137   -0.89996328313317   -2.46059763961909
H       140.35624422447967    0.03110769820324   -0.01010998269995
H       140.38663775867940    0.96023690310930    2.44165906099264
H       138.48116505198541    1.62015300551744    4.22231484356322
H       135.85993200735558    1.57938901764680    4.19324782433800
C        64.42401074397510    0.04921152386961   -0.00382906384462
C        65.63661435430842    0.04382845918836   -0.00964654473735
C        75.31925342915105    0.02242661819209   -0.03842077207921
C        76.53254590104028    0.02029532298804   -0.03605046263055
C        86.21717384716669    0.01855135000508   -0.03169996281823
C        87.43062397269608    0.01767441922010   -0.03032660186823
C        97.11601235290837    0.04084153820019   -0.01167811651999
C        98.32957472619749    0.04586569542230   -0.01257607486779
C       108.01445813356271    0.05699135270059   -0.01844822911192
C       109.22791974571201    0.05848746805891   -0.01961516298115
C       118.91356939087289    0.05905253774464   -0.02347191852402
C       120.12703947600154    0.05884864936225   -0.02373497993124
C       129.81270683892100    0.03676453557674   -0.02088610833864
C       131.02559239027477    0.03287747938048   -0.02038326898024
Zn       70.47746221814418    0.02560000660947   -0.02790341969788
C        67.98960492914220   -1.39303960010650    3.13427234010155
C        67.02364030834623   -0.99650504388040    2.27074712185075
C        67.69507319986208   -0.48590402992866    1.10979621696364
C        67.04008967223335    0.03785946992281   -0.01508389701561
C        67.69042300628475    0.55470344003155   -1.14589063123879
C        67.01394993847352    1.06672122811170   -2.30331147966367
C        67.97624733339872    1.45213932624256   -3.17593353041933
C        69.23693924439971    1.17115281577543   -2.55084790616310
N        69.03211079969250    0.62749933907412   -1.31841794398774
C        70.47068208185044    1.40760011450715   -3.13283979773453
C        71.70649107808903    1.13667737783177   -2.57103220017315
C        72.96354059567302    1.37664653280703   -3.21981224965667
C        73.92960721956422    0.98392694169139   -2.35471681018490
C        73.25985667696190    0.51071219096656   -1.17727317033465
N        71.91772245909017    0.60549291066543   -1.33385695287051
C        73.91648618371229    0.02244902793318   -0.03653287730457
C        73.26450464922448   -0.46667465991676    1.10655392782092
C        73.93929548610575   -0.94381363282136    2.27954033006480
C        72.97699161325380   -1.33937961606645    3.14746060696120
C        71.71715638592747   -1.09564036479922    2.50554575174918
N        71.92305891540481   -0.56066311883690    1.26912512278028
C        70.48376828336777   -1.36468248154265    3.07341418897561
C        69.24753247795280   -1.11912325668568    2.50059759922838
N        69.03747538075311   -0.56969901189529    1.27163843484208
H        67.87551832505143   -1.82585604923361    4.10940504650869
H        65.95890705169290   -1.02689160052043    2.39757235092869
H        65.94850833988939    1.10532408333994   -2.42181623722951
H        67.85788684468088    1.88219016641091   -4.15178798329742
H        70.46857400341788    1.83938447867235   -4.12414757909988
H        73.07696054123666    1.78652620553420   -4.20488994423876
H        74.99326790044140    0.99262142002915   -2.49172186710443
H        75.00350166712680   -0.95312740210825    2.41182829710402
H        73.09467874186967   -1.75297467285364    4.13046882412006
H        70.48594454607075   -1.80069189918090    4.06285608812902
Zn       81.37468593569297    0.02092750925286   -0.03192454664324
C        78.88153997191715   -2.64518897144281    2.17316231029413
C        77.91761082268675   -1.93536024622885    1.53823949819158
C        78.58937765767003   -0.93896658426455    0.75429780657807
C        77.93523599756317    0.01995770625238   -0.03541823516315
C        78.59042727862516    0.97907578205570   -0.82397356011630
C        77.91948946363007    1.97402031309163   -1.61043450868973
C        78.88427058419920    2.68492969549993   -2.24282529370813
C        80.14163589855880    2.12700442612001   -1.83521970851824
N        79.93219603748548    1.09852792387718   -0.96609884678780
C        81.37618525083569    2.56744673138825   -2.28066231251336
C        82.60997968322266    2.06872949307106   -1.89937331425158
C        83.86761513482763    2.53732219916194   -2.40638512897266
C        84.83143366201492    1.81857442354981   -1.78149467662998
C        84.15996589223272    0.91902223876428   -0.88793053671768
N        82.81852102270753    1.07914018569258   -0.98585853628157
C        84.81459993121139    0.01912257169932   -0.03160439670967
C        84.15903813736232   -0.87948842871753    0.82523681434537
C        84.82937216626770   -1.77898663888998    1.71968284978807
C        83.86457678365269   -2.49551575885852    2.34562391524279
C        82.60754199230564   -2.02610277210935    1.83780113897819
N        82.81733779378803   -1.03769425185930    0.92332977969884
C        81.37323400488279   -2.52450588452450    2.21787935341138
C        80.13930002477773   -2.08533903895776    1.76945138191068
N        79.93091422979336   -1.05685110088702    0.90005809229218
H        78.76602505115316   -3.47146917650550    2.84782017405640
H        76.85429499103196   -2.07018769044871    1.57534935809467
H        76.85604644604194    2.10676163649651   -1.65108930977664
H        78.76958407089744    3.51043127320463   -2.91855594297743
H        81.37670382483657    3.37813639191058   -2.99615130187873
H        83.98304322295689    3.30866071867725   -3.14322194367881
H        85.89448259751093    1.87014794926983   -1.91294801169772
H        85.89242864010431   -1.83201388090206    1.85064176094516
H        83.97898729016370   -3.26602039208425    3.08349291675157
H        81.37289446600565   -3.33466061757283    2.93398820658888
Zn       92.27320726651880    0.02732526521065   -0.02404949468767
C        89.78801400474974   -3.26627224711516    1.05266553489310
C        88.82195564674088   -2.37728138318880    0.71716285011383
C        89.49032866442236   -1.16103432553707    0.35326843714777
C        88.83317443466846    0.01926297516785   -0.02948688636893
C        89.48639721560460    1.20232657417540   -0.41078391181348
C        88.81336789077847    2.41576111655425   -0.77562313438541
C        89.77609971300491    3.30933303353553   -1.10841088501279
C        91.03452389012962    2.64189751419537   -0.93791787661508
N        90.82766409007819    1.36688031768913   -0.50344864726286
C        92.26758136393524    3.21518526874801   -1.19727570012070
C        93.50262416651083    2.61415797043494   -1.02473381206746
C        94.75862434829557    3.23677628131276   -1.32956513228016
C        95.72455967197565    2.34372508667534   -1.00485265888220
C        95.05612756246832    1.18156130496675   -0.49414133245309
N        93.71419307880760    1.36247794634287   -0.52891868127987
C        95.71355130999147    0.03704575469840   -0.01470125142233
C        95.05984612961653   -1.11103816653174    0.46136989558574
C        95.73191811134811   -2.26905868639725    0.97669113261977
C        94.76925821912263   -3.16766182222561    1.29584773828511
C        93.51148639971269   -2.55251002205982    0.98329107236260
N        93.71879257280533   -1.29978128429206    0.48826509791288
C        92.27875798084942   -3.16004423162350    1.14970554233651
C        91.04383062010544   -2.59310730256235    0.88507805150015
N        90.83218079704436   -1.31938656360009    0.44930124562870
H        89.67522892695337   -4.28197060649355    1.37954948066322
H        87.75927681611141   -2.52028677904900    0.69873228332251
H        87.75008495425425    2.55412452146423   -0.75936096938335
H        89.65937001916504    4.32475236747003   -1.43479726136525
H        92.26591805721193    4.23001598779658   -1.57046659125465
H        94.87171653725079    4.22181825919728   -1.73959570118962
H        96.78723745425785    2.44161121125238   -1.10937274807042
H        96.79449619695710   -2.36060568717977    1.08801206959783
H        94.88574620474492   -4.15179761433549    1.70709341582863
H        92.28056632497766   -4.17466791767559    1.52344813961105
Zn      103.17218891566519    0.05169947618879   -0.01623177285999
C       100.68523316362412   -3.41105388895575   -0.07819099251765
C        99.72001118265280   -2.46040105451122   -0.10334387818587
C       100.38896196488794   -1.19262574446898   -0.04447728253456
C        99.73203883079013    0.04815351954745   -0.01304530412763
C       100.38624150219127    1.29037131966285    0.01677504558928
C        99.71483909756677    2.55685135521399    0.07579808334659
C       100.67810111291870    3.50943700109780    0.04808733834407
C       101.93553540767172    2.82201871446366   -0.01841406083885
N       101.72747698551790    1.47519149273253   -0.02469992946232
C       103.16859705855366    3.44784978656025   -0.08435095368453
C       104.40310225122276    2.82267968251674   -0.12369485698043
C       105.65942636057622    3.50953272463680   -0.21363031838571
C       106.62471776161831    2.55867512157236   -0.20030150904709
C       105.95538528381979    1.29410245419364   -0.09424953844157
N       104.61372790553304    1.47759222033853   -0.06363218190070
C       106.61197371497609    0.05525468071282   -0.01799182558425
C       105.95819548555291   -1.18506419221935    0.05825002342507
C       106.63019912285311   -2.44841649253044    0.16197056007220
C       105.66687863766978   -3.40127477725132    0.17468524769481
C       104.40906644844056   -2.71684361065066    0.08730662380350
N       104.61686763651068   -1.37126020818871    0.02880875043043
C       103.17580501202804   -3.34452513205217    0.04931972203043
C       101.94138022371122   -2.72113385110701   -0.01352569527996
N       101.73062805179163   -1.37472491149710   -0.00574350343407
H       100.57151180387608   -4.47762930091410   -0.10452732891498
H        98.65756845271819   -2.58875096664320   -0.17076579183981
H        98.65224928136479    2.68314737427927    0.14504483742785
H       100.56235043272734    4.57581198546047    0.07386284765480
H       103.16735976192820    4.52889119817999   -0.10646220792902
H       105.77320936950383    4.57429067273635   -0.28116688254483
H       107.68745137735742    2.68424823924347   -0.26967807210143
H       107.69322696216605   -2.57201241562641    0.23021557839277
H       105.78280835624436   -4.46593049108154    0.24018830623311
H       103.17677576479814   -4.42559023322763    0.07005244731222
Zn      114.07050176739797    0.05884342246141   -0.02113393589975
C       111.57857832175824   -3.16023007474141   -1.29081160211866
C       110.61445406880803   -2.26092855029991   -0.97816722804826
C       111.28544729465985   -1.09378221035323   -0.48221074290656
C       110.63042076871160    0.05921283498279   -0.02052277272198
C       111.28576654276571    1.21221440253380    0.44067869455945
C       110.61529593602245    2.37947037524455    0.93706287643399
C       111.57983593638461    3.27836395602523    1.24968802853894
C       112.83687626729790    2.65461550173013    0.95124244442784
N       112.62735183164092    1.39649432479430    0.47120826477989
C       114.07103261727619    3.25977777154405    1.11552604508683
C       115.30497841918928    2.68599153276225    0.86119345866760
C       116.56221733399884    3.35780814299162    1.02317796306668
C       117.52645694796068    2.46281039047846    0.69867351549124
C       116.85564312437718    1.24419306073241    0.34740674330378
N       115.51407150299372    1.40686567419326    0.44017273155743
C       117.51087339026668    0.05861109744015   -0.02241045107036
C       116.85538273344352   -1.12704324665848   -0.39141763899263
C       117.52569137032943   -2.34579077771426   -0.74316689123340
C       116.56099837706095   -3.24057014483124   -1.06692277913808
C       115.30402389460311   -2.56847516276093   -0.90407978484036
N       115.51366017914926   -1.28945946087500   -0.48308856404437
C       114.06987476910908   -3.14212224353292   -1.15778954409943
C       112.83590906466671   -2.53675160123173   -0.99305653741150
N       112.62693117760246   -1.27847881432035   -0.51310330403898
H       111.46335219467299   -4.15010910625402   -1.68841804309162
H       109.55148452324158   -2.35768068067288   -1.08170591725698
H       109.55235969737846    2.47674348061786    1.04057895199299
H       111.46514678983833    4.26814635775729    1.64764487305427
H       114.07128539786908    4.27870857339143    1.47738433132556
H       116.67715736280638    4.37685182645194    1.33871449006112
H       118.58944153886586    2.60319670311968    0.67976096470891
H       118.58865489840780   -2.48645448294931   -0.72489769646922
H       116.67540850120147   -4.25958591106385   -1.38270633625220
H       114.06983842118233   -4.16108841825648   -1.51949972455836
Zn      124.97033441540898    0.04898950003496   -0.02335704181765
C       122.47333563766892   -2.48024553116677   -2.38061391139997
C       121.51030706487867   -1.75914497008086   -1.75729884030336
C       122.18310127911555   -0.85211168682595   -0.87230342323016
C       121.52978819772784    0.05685513241928   -0.02462268405415
C       122.18682442688984    0.96367440659754    0.82244173637925
C       121.51748621534841    1.87544974043999    1.70521931844191
C       122.48330126824526    2.59244105811994    2.32892303592915
C       123.74011915219445    2.11068729003127    1.83209408764351
N       123.52891946098981    1.11661757780191    0.92406419992941
C       124.97551193960267    2.59905909880400    2.22145725088683
C       126.20942841578373    2.14708832237515    1.78572108156745
C       127.46889399160843    2.69211744049477    2.20465672471853
C       128.43189616215733    1.97735109976044    1.57394813491469
C       127.75751184387936    0.99350511624162    0.77621171285126
N       126.41579109321012    1.12119236277276    0.91309117802624
C       128.40937984446143    0.04027481744665   -0.02138693657202
C       127.75347269786806   -0.91048273123351   -0.81869401617250
C       128.42374712310263   -1.90055208726029   -1.61209025675272
C       127.45786462378439   -2.61176374254595   -2.24245766902320
C       126.20078911268855   -2.05797090665047   -1.82802286343374
N       126.41132439264470   -1.03095926328874   -0.95763132077342
C       124.96519165921251   -2.50251376390060   -2.26661274734112
C       123.73187305254467   -2.00610810822414   -1.88088971623341
N       123.52452722720278   -1.01161162742056   -0.97239806983004
H       122.35685613978706   -3.25654481908557   -3.11206606210559
H       120.44691096625529   -1.81353945748747   -1.88475974144313
H       120.45420902014921    1.93574482678685    1.83098257839777
H       122.36980208303420    3.37071610920936    3.05874237361469
H       124.97691392612629    3.41059021564789    2.93599389685789
H       127.58594870463430    3.51223682524933    2.88653249051797
H       129.49634227453677    2.09985078571153    1.62314885114671
H       129.48757786901410   -2.02930852073537   -1.65869534232032
H       127.57158637584297   -3.43522589592116   -2.92084854325976
H       124.96335794702378   -3.31478609102367   -2.98031724559303
