198
 energy: -338.020056019238 gnorm: 0.000668361675 xtb: 6.4.1 (bd6e46d)
C        34.07707237405755    3.42840957787727    0.18569770433253
C        35.03330995835719    2.48016505791408    0.14682341405642
C        34.33330166396503    1.21171495434303    0.04841197527196
C        34.99584170452792   -0.03084461157937   -0.01284894703838
C        34.34574788963634   -1.27218601403771   -0.11179337144887
C        34.95003639714492   -2.55567493798737   -0.18527763302188
C        33.94669959396266   -3.47695587921757   -0.27711288308041
C        32.70828229063994   -2.77579259576248   -0.26123211467466
N        33.00210296477610   -1.44965357360332   -0.16024177983283
C        31.44060861631117   -3.33411423837474   -0.33440068951156
C        30.22388987115597   -2.66633452804090   -0.31866782138682
C        28.94588136720128   -3.35905662417582   -0.40003511283492
C        27.99775860629504   -2.40504323376183   -0.35501714883643
C        28.70378514720956   -1.13759500146378   -0.24717658113504
N        30.03920722942387   -1.33298982498490   -0.22843701330269
C        28.05849593963371    0.09050433293478   -0.17535469191947
C        28.68387966126027    1.32380354062072   -0.07559442631669
C        28.07809900546562    2.61069818786348   -0.00086442421778
C        29.07812872014134    3.53376759078200    0.08351520027372
C        30.32036990633840    2.83527717125593    0.06284494902786
N        30.03002029888227    1.51114808926292   -0.03323217292130
C        31.58849749471195    3.39337176585835    0.12792890005356
C        32.80560217158618    2.72887734833294    0.11084220477854
N        33.00244546980549    1.39091861553901    0.02823012734221
H        34.18455454182677    4.49369653624203    0.25720900191173
H        36.10003226789657    2.58942654207123    0.17890881924204
H        36.00751831826442   -2.73454000483990   -0.17029737944107
H        34.04460677333456   -4.54262473322698   -0.34971623849369
H        32.32817328106680   -0.69357088133235   -0.12623986931349
H        31.39871653011406   -4.41180445283834   -0.41171563665287
H        28.83276717533460   -4.42341353851791   -0.47901828207087
H        26.93003602528575   -2.50790439430993   -0.38894063749100
H        26.97835389630763    0.08472906614470   -0.20027916149644
H        27.02061921078647    2.79040703026863   -0.01140524283612
H        28.97899097332644    4.59968217384142    0.15384018114164
H        30.70189947029517    0.75415625132798   -0.07065065722721
H        31.63222163319982    4.47138506549264    0.20094665782171
C        83.27179638428576   -3.39837785607286    0.48430827831037
C        82.31580713891780   -2.45047272284396    0.43257053559617
C        83.01396638940588   -1.18899386697472    0.25953338161810
C        82.35103353759011    0.05095497894336    0.16119583688897
C        82.99991813186969    1.28836877048695    0.01528285938213
C        82.39513503935079    2.57088091001417   -0.07013960010928
C        83.39684324730450    3.48888845399641   -0.20321062653171
C        84.63447393235845    2.78624876693293   -0.20524813734083
N        84.34215085226023    1.46300497787276   -0.06821507590706
C        85.89997239835429    3.33965152756528   -0.33272739941108
C        87.11421109522421    2.66755458150343   -0.35475488734553
C        88.38935374207350    3.35270540359969   -0.51049649494913
C        89.33483949363021    2.39512797484855   -0.49487098363678
C        88.63026063265104    1.13341270862630   -0.32692786832893
N        87.29810054131353    1.33540395733954   -0.24684070643566
C        89.27407866818844   -0.09568669290510   -0.25932355461513
C        88.65121053591091   -1.32305466855842   -0.09279275769801
C        89.25713145201976   -2.60934589355044   -0.00936165756521
C        88.26102024197498   -3.52514206238779    0.15900965984205
C        87.02099952112475   -2.82279886474119    0.18105576341092
N        87.30875164997884   -1.50367378789190    0.02616852557109
C        85.75652394296618   -3.37355079237283    0.32844411130977
C        84.54096313492751   -2.70611883129838    0.33769293255558
N        84.34337540444294   -1.37197971520893    0.20766207691572
H        83.16533290186997   -4.45930302072316    0.60526336644606
H        81.25047640458470   -2.55551525868981    0.50258683340215
H        81.33851814408698    2.75137698670357   -0.03210159266036
H        83.29813049928136    4.55311265499018   -0.29368796146882
H        85.01614264086432    0.70693892935965   -0.03567970632661
H        85.94163831570813    4.41546874587272   -0.43263404605858
H        88.50240969640757    4.41481907072264   -0.61548302330970
H        90.39995680136271    2.49225309312321   -0.58358528802203
H        90.35145853051928   -0.09550439128364   -0.34067682686187
H        90.31207939933559   -2.79363301696984   -0.07093557974834
H        88.36127378481353   -4.58862070741823    0.25857955865503
H        86.63726342409089   -0.74590070496588   -0.00022986086840
H        85.71435746640850   -4.44796972655844    0.44334700399706
C        36.39169269274657   -0.03288865362772    0.02391594786613
C        37.61009675261013   -0.02158655246630    0.05450917759516
C        38.95058525322500   -0.00989946947763    0.07734319392956
C        40.16930012581675    0.00937433283181    0.09268290765077
C        49.98470448155279   -0.02358737059206   -0.02699104951009
C        51.20388052155141   -0.00161628785945   -0.02593558968037
C        52.54373396574187    0.01759177578853   -0.02408939730031
C        53.76281440326609    0.03754093789709   -0.01499968934018
C        63.58626155708345   -0.01438995021559   -0.04310105554311
C        64.80541243706787   -0.00039201973382   -0.02934060644369
C        66.14517012519742    0.01617238311059   -0.01154834481801
C        67.36412147420751    0.03346509480820    0.01189808866620
C        77.17730460750171    0.01986454072089    0.21092657267078
C        78.39615392312523    0.03573643997083    0.22045231227596
C        79.73670069032367    0.04651281695892    0.21660249872023
C        80.95542280662053    0.05514271741485    0.20139844472536
C        42.54795776528555   -3.40802782765644    0.45013990564501
C        41.57224723694391   -2.48276460700902    0.36384850279900
C        42.24624041385278   -1.20653481988961    0.21269524103399
C        41.56433530588536    0.02106736864799    0.09058395217393
C        42.20962784832613    1.26237345223309   -0.04329977466635
C        41.61013050967975    2.54301825398485   -0.16400742923631
C        42.61908258064620    3.45680658907529   -0.27772379114333
C        43.85413347854539    2.75236925817656   -0.22983380432454
N        43.55450307890894    1.43222026833165   -0.08497628680543
C        45.12126979956844    3.31269843961806   -0.32029762405442
C        46.34880714987051    2.67186857211526   -0.28052257372024
C        47.60621279335974    3.39235440468694   -0.38903492737154
C        48.58176847314828    2.46683022413280   -0.30410363117587
C        47.90771583531347    1.19133406386375   -0.14624362190451
N        46.57354878463786    1.34298394518075   -0.13712968898116
C        48.59028706539880   -0.03574033657814   -0.01845586104331
C        47.94522242337943   -1.27646638459468    0.12319284827381
C        48.54465017405207   -2.55669279481805    0.24806326754004
C        47.53554713540947   -3.47039830276028    0.36127396372514
C        46.30045390350239   -2.76629748117727    0.30883537019668
N        46.60041830867301   -1.44616833232396    0.16299037618866
C        45.03327432638562   -3.32691437465168    0.39392087726129
C        43.80539920606304   -2.68660411691278    0.34893909549367
N        43.58082917143885   -1.35770545060675    0.20803684697477
H        42.46214676627304   -4.47097513497041    0.56961020816841
H        40.50778212572992   -2.61198745719598    0.39712485541137
H        40.55337568136216    2.72626454781939   -0.16254745072416
H        42.52628292692368    4.51996756962701   -0.38535902980511
H        44.21215731727988    0.66307162445351   -0.01959835636176
H        45.15057155284372    4.38765633008203   -0.43718496584311
H        47.69192583925334    4.45492799845889   -0.51188259087235
H        49.64611551734734    2.59572040921228   -0.34170621034297
H        49.60142085328102   -2.73988947891868    0.24869653732659
H        47.62827719413487   -4.53336902848104    0.47099042006260
H        45.94316234584628   -0.67699945673458    0.09381243122589
H        45.00387039118721   -4.40195343416787    0.51020770606087
C        56.13537015462781   -3.37793841643801    0.39679746813028
C        55.16097490718486   -2.45348262133415    0.28913191380366
C        55.83706328245924   -1.17936772074852    0.13043779998602
C        55.15713719827082    0.04733296268230   -0.01437805604872
C        55.80672146146794    1.28535796303654   -0.15973335781304
C        55.21318340586203    2.56620370063480   -0.30341924133530
C        56.22691862978598    3.47519750892929   -0.41395875207262
C        57.45889163310526    2.76743206835554   -0.34053967119097
N        57.15258523086062    1.44990947013086   -0.18578585703911
C        58.72842632997797    3.32444134028102   -0.41679642764155
C        59.95507303014404    2.68364995100299   -0.35352455303339
C        61.21384547396865    3.40337391815435   -0.45035163197204
C        62.18826778247852    2.47838158737905   -0.34738490217150
C        61.51225965858193    1.20416560421334   -0.18950064884804
N        60.17794409050699    1.35593885524154   -0.19771348254812
C        62.19192858444953   -0.02274050835511   -0.04554866677745
C        61.54219455011513   -1.26038339883414    0.10229967748706
C        62.13580980188983   -2.54100979863395    0.24760059219381
C        61.12214122351521   -3.44952948244536    0.36217752877646
C        59.89017785920425   -2.74171540890409    0.28934330639372
N        60.19636707333301   -1.42460414309736    0.13110393928037
C        58.62074687891191   -3.29855063857151    0.36779683018161
C        57.39414113464655   -2.65810989319246    0.30126614073719
N        57.17134118111125   -1.33077961634788    0.14200938489376
H        56.04787847181095   -4.43945951726775    0.52717457391185
H        54.09622151974978   -2.58259564608697    0.31103132337121
H        54.15717645903324    2.75318990834485   -0.31810753780489
H        56.13940282711581    4.53736099420439   -0.53514569840731
H        57.80421561534483    0.67721880237227   -0.10146665492828
H        58.76071964976445    4.39834569344177   -0.54269294953523
H        61.30127989942372    4.46517288881187   -0.57854738988906
H        63.25303076255791    2.60710100400024   -0.37195087075269
H        63.19178378134420   -2.72813410419114    0.26058144076029
H        61.20963392023153   -4.51143967655944    0.48549285502227
H        59.54505638796530   -0.65165077966618    0.04650579576851
H        58.58847394481806   -4.37203523186270    0.49714112944397
C        69.73548245594799   -3.37488363108810    0.48580694617362
C        68.76175058966912   -2.45353589960467    0.34974539666243
C        69.43828938003209   -1.17763185749100    0.20630691844732
C        68.75824886727366    0.04619335356722    0.04006941013674
C        69.40539925360076    1.28638444851160   -0.09728323114493
C        68.80777331893427    2.56241849811244   -0.26599859611859
C        69.81799626257654    3.47755148117747   -0.35502617021448
C        71.05198328789777    2.77860527813937   -0.24266621668634
N        70.75023980963817    1.45981149258131   -0.08843341882448
C        72.31995825745499    3.34225943426890   -0.28437846325450
C        73.54666211059288    2.70644866774709   -0.18140160266860
C        74.80539917113275    3.42969207130566   -0.24655284080704
C        75.77928544069049    2.50787960857850   -0.11464925700227
C        75.10289588989144    1.23218038684420    0.03005016656903
N        73.76869061564847    1.38023553931328   -0.01341958876812
C        75.78253031748216    0.00790695521435    0.19238637602376
C        75.13542455016066   -1.23182486118708    0.33178373295437
C        75.73327873353151   -2.50819638345028    0.49738508363669
C        74.72310854394003   -3.42299417449309    0.59037589268461
C        73.48895504815668   -2.72362804204199    0.48289581240464
N        73.79035844620664   -1.40496946964079    0.32838155893571
C        72.22075682783093   -3.28709093798738    0.52723930432557
C        70.99429248705013   -2.65139412758770    0.42342850245813
N        70.77209723068228   -1.32512090330488    0.25409323506614
H        69.64775246933807   -4.43643413894830    0.61590886990414
H        67.69713926267728   -2.58559392742821    0.34264190114847
H        67.75135453721066    2.74200895391966   -0.31119555784340
H        69.72668336275015    4.53820854911722   -0.48619017698008
H        71.40663124101522    0.69429987461380    0.01880186546145
H        72.35115934980287    4.41558039724999   -0.41513226460620
H        74.89321582986807    4.49129050509208   -0.37618788519838
H        76.84399184503725    2.63927428971747   -0.11131246331496
H        76.78984060472261   -2.68807761529398    0.53783564502032
H        74.81463917011449   -4.48374128693696    0.72049938296179
H        73.13376925795380   -0.63935501723236    0.22318614546882
H        72.18953882714609   -4.36031760366282    0.65864895321420
