271
 energy: -496.928506576162 gnorm: 0.000545994575 xtb: 6.4.1 (bd6e46d)
Cu       43.38059808041822    0.00830005785709   -0.01624305012429
C        45.89195676775292   -3.42825484489906    0.03187868075104
C        46.84902948395093   -2.47019748356069    0.02049638768140
C        46.16606728449953   -1.20857087417722    0.00393511285591
C        46.81908961629421    0.03273159607003   -0.01238758450308
C        46.14863873401250    1.26461562803648   -0.03073567872763
C        46.81366639354982    2.53578921670974   -0.04645038134096
C        45.84311737642065    3.48013945610079   -0.06182949562136
C        44.58835369089214    2.78383656885221   -0.05497533575190
N        44.80769450256607    1.44080702988108   -0.03575065924847
C        43.35502553338283    3.41026979128733   -0.06680870598220
C        42.13180174828285    2.76422175924731   -0.05906769804511
C        40.86213644873587    3.43846948414028   -0.07071649180802
C        39.91066721023787    2.47725106472333   -0.05626915363600
C        40.59792611323411    1.21451655124095   -0.03603448707051
N        41.93907055838114    1.42093972021181   -0.03841866443584
C        39.96493767315520   -0.01592051413884   -0.01725644800236
C        40.61523813951111   -1.23730534526438    0.00096281686331
C        39.94592594527644   -2.50967986325253    0.01890272885645
C        40.91091148876821   -3.45734817517053    0.03203635806593
C        42.17089641365833   -2.76515349550987    0.02234235313762
N        41.95916503876055   -1.42471040684865    0.00373098192270
C        43.40316074834332   -3.39376507844967    0.03087294804631
C        44.62746567027044   -2.74983056304625    0.02265232827415
N        44.82776044281339   -1.40378699615361    0.00549133720703
H        46.01182881119914   -4.49425161000172    0.04519696056995
H        47.91565770038920   -2.58438134462974    0.02213128199792
H        47.87857961420253    2.66505345936191   -0.04538624636921
H        45.94785774552041    4.54771609283658   -0.07617629738349
H        43.34771480399966    4.49062020131496   -0.08294046874358
H        40.73950195865474    4.50430562411069   -0.08763801752035
H        38.84349798877718    2.58879968378361   -0.05875525126821
H        38.88471735914369   -0.02354838983970   -0.01729660856785
H        38.88044563350219   -2.63634807152667    0.02065708342665
H        40.80340239485741   -4.52484716012038    0.04689625715579
H        43.41120225327426   -4.47413470953462    0.04528044909748
Cu      124.15222668352740    0.04235831947240   -0.01437612856324
C       121.64927018442197    3.44300957262245    0.52180255114474
C       120.68947633068923    2.49972497846198    0.37019068325159
C       121.36879379072892    1.25128840814333    0.17427955826565
C       120.71243203327424    0.02607001130982   -0.01421839489838
C       121.38036102789260   -1.19300619836339   -0.20154069868714
C       120.71285900730027   -2.44806509896008   -0.39569740032584
C       121.68151953089688   -3.38245325428820   -0.54597746189203
C       122.93770053373511   -2.69633277989032   -0.44287461119918
N       122.72106634623779   -1.36923480994978   -0.23316882602838
C       124.16958097585803   -3.31706975539517   -0.54740119988674
C       125.39454767566565   -2.68143648449324   -0.45192994395092
C       126.66240126050907   -3.34984563714935   -0.56447106763250
C       127.61647144533255   -2.40275196854134   -0.41547922899880
C       126.93264564064022   -1.15449263824374   -0.21184274415778
N       125.59093758218967   -1.35541159777521   -0.23979676505882
C       127.56877972386961    0.05886605000485   -0.01666935434465
C       126.92120013381459    1.26589999725436    0.18010556585298
C       127.59321776765260    2.52062755392254    0.38329865176367
C       126.63024661520176    3.45821987510436    0.53509784225698
C       125.36875866058496    2.77756693757705    0.42443799349119
N       125.57765915364811    1.45370571565159    0.21074490155538
C       124.13784767113025    3.40123531893332    0.52234992734087
C       122.91186861018183    2.76889518186069    0.41801938132578
N       122.70775780361798    1.44007130813731    0.20665256256431
H       121.53248296247187    4.49630583268326    0.68860269773544
H       119.62317488649657    2.61581836172722    0.38689141891976
H       119.64768734339437   -2.57412947217290   -0.41248758013839
H       121.57471717400465   -4.43700628922983   -0.71150036549837
H       124.17412972439023   -4.38411175459491   -0.71735660545808
H       126.78220471197875   -4.40249559786423   -0.73448142774414
H       128.68333323880643   -2.51515201853496   -0.43753339758004
H       128.64901273102188    0.06416002655264   -0.01774126125477
H       128.65897451917013    2.64342824395439    0.40323872966687
H       126.74008964197188    4.51186376777763    0.70568692661348
H       124.13234539868213    4.46807822745483    0.69351972900575
C        48.21659356703346    0.04215742831184   -0.01040637536878
C        49.43486122276645    0.04874710359184   -0.00950262743978
C        50.77655482394852    0.05403176621720   -0.00878691017808
C        51.99497601977497    0.05710584617931   -0.00853342386766
C        61.67973334823000    0.06012607373669   -0.01854568003507
C        62.89843288169694    0.05907493439637   -0.01771793574765
C        64.23969863556859    0.05778456996908   -0.01757150674750
C        65.45840751786676    0.05545968031702   -0.01970586864837
C        75.14332079472000    0.04323816644797   -0.01664546468907
C        76.36198503908842    0.04076969948778   -0.01883509780123
C        77.70317921597547    0.03970391881154   -0.01861908641979
C        78.92188374305002    0.03912633384380   -0.02390731130152
C        88.60558682343236    0.05053784502930   -0.02706548092886
C        89.82425616988108    0.04948357464874   -0.02434969364166
C        91.16543438591975    0.05020069850845   -0.02591234749069
C        92.38412046604748    0.04940879670001   -0.02167390294333
C       102.06915079244710    0.03306191497385   -0.01943850706536
C       103.28785402641448    0.02985800456376   -0.01947119741235
C       104.62921095840487    0.02828086086440   -0.02018934531986
C       105.84790274480932    0.02386636963333   -0.01989988459734
C       115.53579136541855    0.00979108134869   -0.01407417201889
C       116.75423440006064    0.01252521755427   -0.01399035730260
C       118.09625604672351    0.01557525163560   -0.01309596188037
C       119.31456559154175    0.01975047915829   -0.01439939122196
Cu       56.83739482062794    0.05926731221145   -0.01163170021984
C        54.35059414707262   -3.37706883771588    0.34332613888204
C        53.38434183623907   -2.43289021408827    0.24664903801399
C        54.05557868333278   -1.17170677730633    0.11621773137711
C        53.39181736461768    0.05823887864420   -0.00861902262546
C        54.05457705061177    1.28860444259686   -0.13387102744686
C        53.38235858072942    2.54942107500933   -0.26265269229799
C        54.34788511733297    3.49427112279113   -0.36007589981850
C        55.60600928948990    2.80793153759841   -0.29069423375982
N        55.39403706301928    1.47059419024625   -0.15346238481441
C        56.83600098863416    3.43697793396954   -0.35648623303288
C        58.06653453137267    2.80851598263262   -0.29416065874105
C        59.32401251999351    3.49559998944854   -0.36647882347771
C        60.29035509866584    2.55125386692753   -0.27168754810162
C        59.61924714458318    1.29005849634959   -0.14162372651479
N        58.27965337745127    1.47124154020302   -0.15788319902389
C        60.28322758041045    0.06013725542744   -0.01622132969418
C        59.62014091660006   -1.17010610867335    0.11114305108938
C        60.29224018125174   -2.43089808341761    0.24007144481803
C        59.32664359266504   -3.37563112195422    0.33847124532283
C        58.06864329396902   -2.68921957330920    0.26919883559994
N        58.28070061117621   -1.35193058517378    0.13135927263458
C        56.83863295919157   -3.31830537009608    0.33517327635645
C        55.60816408664314   -2.69000397162476    0.27152482703015
N        55.39515737254812   -1.35286315287954    0.13390735676907
H        54.24086742356453   -4.43860302099635    0.45299900993327
H        52.31882321538933   -2.55626843296881    0.26062411249509
H        52.31672444681561    2.67209382979797   -0.27492178534222
H        54.23733937883199    4.55580439504214   -0.46895007929490
H        56.83559009404865    4.51208585616230   -0.46632346110996
H        59.43364334429101    4.55725313659944   -0.47505725077667
H        61.35586439307180    2.67465214659404   -0.28619035328257
H        61.35783608071839   -2.55380661037841    0.25144050451087
H        59.43709350573496   -4.43714278460658    0.44760137417362
H        56.83908541094795   -4.39331880129183    0.44590973515915
Cu       70.30091742219358    0.04910764753158   -0.02124282354735
C        67.80857180909025   -3.37766232472230    0.38101801377766
C        66.84379338318637   -2.43317122450765    0.27266959267663
C        67.51696307761624   -1.17519655435326    0.12375367096159
C        66.85487921084673    0.05362160723534   -0.02120905870753
C        67.52005861354310    1.28061544094925   -0.16749685143783
C        66.85017405194763    2.54008160547543   -0.31863459025949
C        67.81742376279072    3.48166223383157   -0.43030289575957
C        69.07421268571177    2.79470956923087   -0.34650799339716
N        68.85981194712004    1.46005316417339   -0.18770628632545
C        70.30528812536411    3.42103963396257   -0.41745294066517
C        71.53470617822438    2.79221116806408   -0.33967685783894
C        72.79328494889707    3.47679675913782   -0.41533548588661
C        73.75804684959063    2.53271887546863   -0.30309890923803
C        73.08484604209021    1.27417568068389   -0.15931112322344
N        71.74556563403026    1.45664626080261   -0.18382290003747
C        73.74690638015170    0.04493318713485   -0.01762360354934
C        73.08175984180950   -1.18284410698215    0.12200001699208
C        73.75166501096223   -2.44317841408975    0.26536810120564
C        72.78441663138594   -3.38522996870152    0.37310221331649
C        71.52763740954367   -2.69758043839736    0.29526724803991
N        71.74200925746220   -1.36222843936504    0.14253164522277
C        70.29652291273638   -3.32354293225565    0.36902910161366
C        69.06714762114520   -2.69382715731221    0.29861147506435
N        68.85625148523361   -1.35821514957203    0.14311552915347
H        67.69719132707783   -4.43743027055691    0.50514036972337
H        65.77808315529030   -2.55456115256910    0.28917640435323
H        65.78478430958972    2.66430332297747   -0.33472874915274
H        67.70879727685603    4.54136767422014   -0.55736819660044
H        70.30674229043235    4.49429295307108   -0.54413667352966
H        72.90472420115549    4.53675570409423   -0.53775696910607
H        74.82375811920981    2.65472999346491   -0.31399537552322
H        74.81705216198709   -2.56766046838721    0.27923003934167
H        72.89308303787047   -4.44565873281755    0.49393234479181
H        70.29505655955602   -4.39714619351981    0.49271019121437
Cu       83.76377400238916    0.04493977074404   -0.02163074606064
C        81.28014756230328   -3.38746076353729    0.38726887681825
C        80.31313500462598   -2.44586679153816    0.27366486945926
C        80.98334233360524   -1.18653027404062    0.12314248397418
C        80.31830088188629    0.04044231841855   -0.02364490862825
C        80.98032209738440    1.26918636634309   -0.16950288096574
C        80.30696669467393    2.52688840180895   -0.31970067126829
C        81.27161517018730    3.47144429008003   -0.42870552016308
C        82.53024280361478    2.78790640757575   -0.34529559229263
N        82.31956644570091    1.45238635878959   -0.18854740509541
C        83.75957763708098    3.41761494631073   -0.41618721762067
C        84.99047752373978    2.79138308142569   -0.34183776815687
C        86.24742932394990    3.47849206810404   -0.42115547306710
C        87.21439343874884    2.53624646033533   -0.31270423104183
C        86.54410739513956    1.27638317111447   -0.16701079778646
N        85.20441956313780    1.45611757606701   -0.18734887726423
C        87.20918688084636    0.04888677845215   -0.02498460842644
C        86.54728084122195   -1.18003109205285    0.11992020849472
C        87.22064033795752   -2.43803328119637    0.26757956341548
C        86.25599131032392   -3.38198371511774    0.38175206931083
C        84.99735193969597   -2.69790715909277    0.30299193565251
N        85.20803276810817   -1.36265388777088    0.14397482900429
C        83.76797697105009   -3.32685836446215    0.37975279029622
C        82.53707512084846   -2.70060602795402    0.30534108467569
N        82.32306067391895   -1.36600588491477    0.14534874439593
H        81.17126685307421   -4.44713788836583    0.51434649814489
H        79.24771362107745   -2.57003381217484    0.28780284241789
H        79.24124642540204    2.64806330440611   -0.33673200382411
H        81.16007267267059    4.53105769403318   -0.55399674730309
H        83.75823310655430    4.49107712330218   -0.54101436379281
H        86.35638944532417    4.53872448040461   -0.54343004677793
H        88.27982537218600    2.66029297980320   -0.32723420116915
H        88.28636090181286   -2.55977908942856    0.27976346930110
H        86.36757474283309   -4.44155753811240    0.50735972840815
H        83.76926532149869   -4.39988934005625    0.50825859300213
Cu       97.22639340067393    0.04154590160633   -0.02031865279966
C        94.73244462133206   -3.38311750747932    0.39061231440960
C        93.76815534805097   -2.43854240766461    0.27857041319179
C        94.44201278514858   -1.18129654071914    0.12674149137720
C        93.78052460872236    0.04746634588459   -0.02143258060258
C        94.44616680084825    1.27404667647189   -0.16874873024461
C        93.77674104488574    2.53361156082025   -0.32085717620658
C        94.74435744513367    3.47483523706846   -0.43245461262157
C        96.00087244849625    2.78746616719061   -0.34808128300639
N        95.78599045316115    1.45298005779699   -0.18859548174103
C        97.23227095602870    3.41311436235579   -0.41982077097221
C        98.46135403624326    2.78358198438936   -0.34266475407792
C        99.72022844597963    3.46742011680888   -0.42026186223829
C       100.68460265138670    2.52290184327309   -0.30855378098543
C       100.01092167133429    1.26488491166515   -0.16229545043168
N        98.67168428702597    1.44803491145046   -0.18573814697949
C       100.67257757059441    0.03557098218752   -0.01919622880666
C       100.00672342817252   -1.19150434619195    0.12336718614529
C       100.67597121163145   -2.45187388469887    0.26961368267588
C        99.70827223528555   -3.39292221870229    0.38178895117887
C        98.45182253913860   -2.70479489413496    0.30287620460108
N        98.66685104429835   -1.37004294672142    0.14568499876180
C        97.22051727644087   -3.33003024563186    0.37944036867954
C        95.99136466495206   -2.70008673822338    0.30697876663393
N        95.78119131520839   -1.36483754926701    0.14748770533948
H        94.62040960878576   -4.44245213337385    0.51780806147495
H        92.70237836997876   -2.55941656274047    0.29450208418770
H        92.71139466284629    2.65816579860836   -0.33732258730155
H        94.63608283827338    4.53452887706021   -0.55991728391218
H        97.23424324734061    4.48631143782166   -0.54697326223180
H        99.83206646207623    4.52721290253345   -0.54375277972116
H       101.75036214469375    2.64430578686725   -0.32106432182768
H       101.74129390423201   -2.57697293171258    0.28263341387863
H        99.81634436203930   -4.45300536255616    0.50614644723541
H        97.21865529042456   -4.40319367760372    0.50686650670326
Cu      110.69159148177360    0.01650661891059   -0.01822166134086
C       108.19823645435748   -3.41766765543736    0.30584412209759
C       107.23340739378368   -2.47100019422922    0.21916334257321
C       107.90649496613013   -1.20994907783609    0.09816029571378
C       107.24450511375974    0.02185258467100   -0.01977451141112
C       107.91032495776717    1.25153522922719   -0.13787804074357
C       107.24132636479042    2.51452610140252   -0.26104595128228
C       108.20921831518729    3.45811656809427   -0.34702765566098
C       109.46558638202765    2.76879447863629   -0.27616336902336
N       109.25026037474974    1.43085505180857   -0.15059123023127
C       110.69703031221189    3.39655921593608   -0.32647694517474
C       111.92641706223881    2.76629186953570   -0.26055240856051
C       113.18503598733628    3.45315634137670   -0.31437009245870
C       114.14988576321331    2.50678563910512   -0.22560207020250
C       113.47685325927399    1.24436450490012   -0.11837137798320
N       112.13744674141064    1.42720970186743   -0.14035795410046
C       114.13861116944311    0.01139845531458   -0.01453571781846
C       113.47296338907775   -1.21945234065288    0.08846706131857
C       114.14203104362944   -2.48378229657054    0.19795081418012
C       113.17419096242830   -3.42732005280645    0.28435127460314
C       111.91770781179125   -2.73676764320984    0.22731406517750
N       112.13294718143410   -1.39834131734804    0.10744302165963
C       110.68635070544443   -3.36357795464402    0.28980571066474
C       109.45684355703969   -2.73221990579047    0.23708886456944
N       109.24582509908822   -1.39351662535611    0.11224714499070
H       108.08682150709051   -4.47991959012603    0.40645492402283
H       106.16769755521234   -2.59273443712657    0.23362670348046
H       106.17603036956767    2.63954894660957   -0.27720823652266
H       108.10132704733547    4.52063268254126   -0.44871061388512
H       110.69873859263834    4.47272814105160   -0.42549352200226
H       113.29635004723451    4.51608030722346   -0.40777652401750
H       115.21557689109088    2.62940976691605   -0.23146145117657
H       115.20737175918900   -2.60940828192043    0.20666550140170
H       113.28206419398744   -4.49054755774520    0.37836256091199
H       110.68476323718320   -4.43978065574893    0.38846714344729
