122
 energy: -208.278303946565 gnorm: 0.000426040111 xtb: 6.4.1 (bd6e46d)
C        15.77094999270329    3.40538102380733    0.31665751728720
C        16.72842520651527    2.45869358307558    0.26855479382901
C        16.03044388048405    1.19222992782626    0.13728058974782
C        16.69350523890295   -0.04915856535651    0.05759092917462
C        16.04217382483398   -1.28911304271567   -0.05199748965251
C        16.64346393237466   -2.57416684048639   -0.12104264854568
C        15.63820048690904   -3.49227565204881   -0.22339643474857
C        14.40172780327249   -2.78730840702454   -0.22109261710419
N        14.69838336595607   -1.46237036581555   -0.11325143922804
C        13.13432124650146   -3.34255006641580   -0.31836816589290
C        11.91834403281173   -2.67324591023232   -0.32675137452957
C        10.64220728483889   -3.36404930453602   -0.44551342294974
C         9.69400124621472   -2.40937709350713   -0.41882317242971
C        10.39800273603501   -1.14364532890066   -0.28289534539941
N        11.73249526707701   -1.34047304160677   -0.23196539187639
C         9.75272297112716    0.08476760766159   -0.21631762432846
C        10.37851788076720    1.31513272534312   -0.08737688483792
C         9.77562708454096    2.60343671472096   -0.01429779407497
C        10.77657591240720    3.52124958284732    0.10758917734816
C        12.01660638721731    2.81801628580392    0.11167447840627
N        11.72386744724045    1.49642365747455   -0.00755209946333
C        13.28396702284956    3.37209073398462    0.21467445407331
C        14.50099659774396    2.70704809868675    0.21079165178254
N        14.69954463154845    1.37090804687255    0.10676153041558
H        15.87710203200799    4.46901409663161    0.41158165928214
H        17.79458487210828    2.56847771923604    0.31587696515123
H        17.70015086273287   -2.75672062442199   -0.09404550714912
H        15.73356629393600   -4.55823178291237   -0.29497042074103
H        14.02817289559299   -0.70263108310447   -0.08514632037722
H        13.09211901625184   -4.41988590064962   -0.40089238378368
H        10.53019478495395   -4.42759610535031   -0.53576941175084
H         8.62743211660359   -2.51107403700934   -0.48153890120131
H         8.67360982811120    0.08150700005549   -0.26914228086019
H         8.71951739623448    2.78787908302902   -0.05152372858031
H        10.67980909327953    4.58675670852253    0.18690898340784
H        12.39142977740512    0.73505086463528   -0.03581975201264
H        13.32736101815144    4.44884602976118    0.30475427717938
C        42.90353636441895   -3.39811815235383    0.41654613872038
C        41.94566093943191   -2.45224834907833    0.36141374431706
C        42.64282538002828   -1.18739568565852    0.21169674310006
C        41.97917473192559    0.05287032595775    0.11981157613271
C        42.63010811861723    1.29138161249317   -0.00800025201451
C        42.02846765273547    2.57579709454707   -0.08643938935747
C        43.03329703075524    3.49284031551407   -0.20116077442831
C        44.26977772759418    2.78788261200223   -0.19778637604804
N        43.97353308941047    1.46397124710732   -0.07687448512092
C        45.53667723332934    3.34220680031231   -0.30587724186447
C        46.75255080911262    2.67273841857216   -0.31643302556231
C        48.02795158324422    3.36217299562459   -0.44961994317766
C        48.97596854354607    2.40726144108883   -0.42384078184325
C        48.27262210010791    1.14285669562862   -0.27292177864174
N        46.93867041698550    1.34062408229108   -0.21290068975371
C        48.91800962795083   -0.08517701386350   -0.20050694165734
C        48.29302492658154   -1.31375668631001   -0.05193251664856
C        48.89631612124758   -2.60118845449839    0.03294444474667
C        47.89639034525675   -3.51702360646477    0.17639541458986
C        46.65658875216162   -2.81350959729641    0.18158649681020
N        46.94839690497363   -1.49364494768754    0.04199308578659
C        45.38995024676819   -3.36591878702901    0.30148449586275
C        44.17287287872872   -2.70101517747513    0.29608177781360
N        43.97350735385454   -1.36630565389881    0.17620934896646
H        42.79808405001339   -4.46051555964983    0.52468860811142
H        40.87973984337510   -2.56159149839329    0.41471872627799
H        40.97194445900690    2.75861555223654   -0.05656862834319
H        42.93772361264713    4.55808102727214   -0.28156680160549
H        44.64397161408537    0.70462161313056   -0.04420665938686
H        45.57838505195546    4.41885488001603   -0.39700480637219
H        48.13959949226718    4.42505931008114   -0.54802067741295
H        50.04202477797683    2.50804513553505   -0.49562287235053
H        49.99659809248043   -0.08298009779725   -0.26324540031444
H        49.95202891205402   -2.78624762035551   -0.01116394676129
H        47.99370206921267   -4.58137519871040    0.26965309243793
H        46.28047236343566   -0.73274635472382    0.00975014735194
H        45.34717088524344   -4.44136554955921    0.40638905112303
C        18.08903281853849   -0.05181338388035    0.08184931121754
C        19.30953806873889   -0.04262637393492    0.08815478733512
C        20.64492545167598   -0.03059529252698    0.08716563094220
C        21.86965839178196   -0.01373066017476    0.07479152895932
C        23.20475110418007    0.00148958872772    0.06209982765338
C        24.42534038495799    0.01696789803721    0.04689828903892
C        34.24755888099184   -0.00296673060434    0.14617157738150
C        35.46814529445616    0.01244539496046    0.16172751961304
C        36.80322022699951    0.02703168278465    0.17175285470017
C        38.02808477310884    0.04127039300829    0.17451210994435
C        39.36342673328023    0.05074230041116    0.16600474060174
C        40.58388085423698    0.05666160700710    0.15229513015922
C        26.80297867588544   -3.39296424008256    0.47689349486925
C        25.82703938591151   -2.47177501825710    0.35618501633630
C        26.50116954944650   -1.19638285984370    0.19884168631912
C        25.81964097567143    0.02737290051941    0.03894867075703
C        26.46726905039331    1.26333170571266   -0.13007225041901
C        25.87140582028842    2.53760736975166   -0.31785092715818
C        26.88345301494981    3.44621663666117   -0.44440135019496
C        28.11678682225522    2.74550137494927   -0.33408229333368
N        27.81285344882234    1.43164439257471   -0.14654390522937
C        29.38534571994081    3.30567397178683   -0.40014939478318
C        30.61288908324905    2.67246132599131   -0.29047287607017
C        31.87040362666898    3.39667519976837   -0.36914236428504
C        32.84610176060664    2.47925932102957   -0.22072725472260
C        32.17206705143180    1.20487760465547   -0.05545288891898
N        30.83746640951444    1.34971401158634   -0.10063913364054
C        32.85346733432581   -0.01630325576109    0.12382330417472
C        32.20581236977788   -1.25438042130029    0.27664540875707
C        32.80162011977834   -2.52985935973945    0.45692782032454
C        31.78983885700476   -3.44204210744900    0.55662935754567
C        30.55657158083100   -2.74192093221882    0.44018435817415
N        30.86043816294790   -1.42531950659191    0.27286794068514
C        29.28834825027618   -3.30424627240938    0.49150473994587
C        28.06058809141883   -2.66931534005128    0.39504148729457
N        27.83595285061776   -1.34386093072445    0.22533233246477
H        26.71681003137650   -4.45434643644082    0.60912584843447
H        24.76248282882655   -2.60443179550546    0.36621373917815
H        24.81504599906151    2.72038791142381   -0.35144295835377
H        26.79370934300636    4.50372331028520   -0.59965308633859
H        28.46696184704476    0.66495154500978   -0.03296899865429
H        29.41644201332100    4.37599164158256   -0.55374081011954
H        31.95657992959281    4.45612310238541   -0.51608545294883
H        33.91050021913814    2.61361686278315   -0.21882808954973
H        33.85780542256906   -2.71146831213794    0.50217290227765
H        31.87965576938285   -4.50148596265807    0.69850878722471
H        30.20683594048194   -0.65827813216627    0.15806538347578
H        29.25768568233657   -4.37679583183889    0.62870653029750
