74
 energy: -131.993250188791 gnorm: 0.000295538423 xtb: 6.4.1 (bd6e46d)
Co        9.22886485880504   -0.04649462949032    0.01260038628018
C        11.63174346945593   -3.37295199602779    1.00818048618892
C        12.60843690724716   -2.46753633732699    0.77547126262786
C        11.95384609140068   -1.25732379022009    0.38163312837792
C        12.64945492133011   -0.09585905450836    0.04564802205581
C        11.99394982858736    1.09512642487788   -0.26842504945536
C        12.69117096548783    2.30439193404086   -0.58586968727085
C        11.74655754457260    3.25672424097301   -0.75579145077156
C        10.48208620457006    2.61601434568497   -0.55613594861553
N        10.64414191485776    1.28634409757294   -0.26950123349193
C         9.27911174985264    3.28249565231858   -0.64553988143245
C         8.05678616168830    2.65961541901739   -0.51877715004832
C         6.80733455671837    3.34847372791665   -0.66130717757478
C         5.83905324863727    2.41382049273471   -0.54832793126382
C         6.50402264919535    1.16267756094013   -0.32691174119412
N         7.86074699946434    1.32416107256134   -0.30149630100842
C         5.83219897369275   -0.03054309937387   -0.16951763610874
C         6.47035372165769   -1.22368847300697    0.09309227533405
C         5.77036437235563   -2.45789935576597    0.30130083452865
C         6.70667318102216   -3.38476186628757    0.59834561627162
C         7.97226231851265   -2.71203986651151    0.55986335517662
N         7.81853175242846   -1.39173001315904    0.24057754709848
C         9.16888295161508   -3.33981622152177    0.82874068364346
C        10.39073894570328   -2.70716741579859    0.75118910689246
N        10.59849621454293   -1.40398501027174    0.38315068692377
H        11.72051005315407   -4.39527064554599    1.32056261100660
H        13.67083232861765   -2.57941413486653    0.86833557525287
H        13.75737253034508    2.38704135164674   -0.66660890733270
H        11.87149702939808    4.29413097711017   -0.99818013282130
H         9.29624077115966    4.34305183473390   -0.84578983817526
H         6.71205935922552    4.40338322487688   -0.83188156149450
H         4.77434008459618    2.53356595084933   -0.60326836780439
H         4.75502593983684   -0.02717581116468   -0.23693392941598
H         4.70579039389120   -2.57089421999226    0.23123743891825
H         6.57949421642226   -4.42608479166709    0.82309444752261
H         9.15069437379833   -4.38415778201599    1.10111308880823
C        14.05260424696761   -0.11213642744536    0.05474537791086
C        15.26448666412527   -0.11315430360057    0.07287307946377
Co       20.06694867287836    0.04672164668765   -0.01834564135635
C        17.55315883443843    3.15898656729041    1.28142810140019
C        16.60959162623485    2.24972509104289    0.94566262255232
C        17.30948124141846    1.09909559366052    0.46074348219280
C        16.66676230830708   -0.08658645871308    0.09753478795795
C        17.37973566516809   -1.25973251854261   -0.15434943163292
C        16.75146757654490   -2.53195604097654   -0.34091119093238
C        17.74728751270206   -3.44478087545752   -0.41078548637673
C        18.97557759679389   -2.71599377369240   -0.31251319588257
N        18.73780460190196   -1.37666578735739   -0.15577045959449
C        20.21746661267988   -3.30203063227536   -0.44289194773779
C        21.38361714454734   -2.57486703782700   -0.55421168144616
C        22.65020544671560   -3.16076955327685   -0.88392215295513
C        23.51507782392396   -2.13660163332204   -1.05330664999726
C        22.78154294676927   -0.93386599661361   -0.78527786987155
N        21.47914091836638   -1.21310389153022   -0.48171415150027
C        23.35703268256754    0.31984256855473   -0.77014698606764
C        22.69009101008976    1.44132116509137   -0.32288250204805
C        23.32786156881139    2.70902216459467   -0.11572439452742
C        22.40938354442300    3.51113453646340    0.46632219346615
C        21.20428971665056    2.74169846220243    0.57238545491102
N        21.38694875512936    1.47759219210315    0.08659541343777
C        20.01333782213698    3.25320765966101    1.04321778514659
C        18.81861525298368    2.56887194262727    0.96549060850846
N        18.65728836028276    1.29749923335115    0.48119024998656
H        17.42468128509024    4.14325600534521    1.68795570581852
H        15.54307282091612    2.31899898867297    1.03498769840893
H        15.69139213262549   -2.68250482834695   -0.39990588916987
H        17.67826418506350   -4.50772473514775   -0.53728085290543
H        20.27005570633474   -4.37607076617212   -0.53687130363672
H        22.82361604266618   -4.21453909783924   -0.98662828398267
H        24.55481428598766   -2.16782368335030   -1.31602813957900
H        24.39501935879510    0.41429407204951   -1.05027176098007
H        24.34746608898779    2.92475320874689   -0.37034625855320
H        22.50905570106744    4.53076682860295    0.78486366997698
H        20.00191363197166    4.26221879529820    1.42643668805372
