310
 energy: -542.419585403538 gnorm: 0.000982412298 xtb: 6.4.1 (bd6e46d)
Zn       50.63789382897093    0.00817980765381   -0.01493295615342
C        53.17050698036106   -3.42697517963754    0.01436352304992
C        54.12396477543932   -2.46425763703593    0.01432159188954
C        53.43521502978499   -1.20523712336907    0.00390000888546
C        54.07437869395609    0.04549340492926   -0.00273534324843
C        53.40848017574480    1.28204340576078   -0.01165086832693
C        54.06985441776408    2.55567593198429   -0.01482980551571
C        53.09576582709254    3.49751796191718   -0.01962298202613
C        51.84283221702493    2.79697253943560   -0.01964098497044
N        52.06495929912966    1.45236680717017   -0.01496522880625
C        50.60169653120085    3.41131912341993   -0.02383861987694
C        49.37463924220648    2.76909239290806   -0.02618042609949
C        48.10144980004431    3.43721330721825   -0.03251477477365
C        47.15439180754426    2.47042196251748   -0.03554233528837
C        47.84828084601273    1.21071732672963   -0.03065199347117
N        49.19022199012905    1.42280886753491   -0.02471496636993
C        47.22950463448215   -0.02879483538395   -0.03242208746865
C        47.87492253263449   -1.25463563123660   -0.02677635027439
C        47.20847960007706   -2.52908762394461   -0.02799570358608
C        48.17624581076413   -3.47511437420894   -0.01913949836149
C        49.43463157462453   -2.77953068307008   -0.01261019024935
N        49.22112197777267   -1.43757053682444   -0.01798753060577
C        50.67529279608640   -3.39494200211394   -0.00163244022696
C        51.90275459953465   -2.75376664039639    0.00404563371298
N        52.09573391357534   -1.40464373285337   -0.00141325341514
H        53.29867376520760   -4.49224014004205    0.02049181040388
H        55.19078620770510   -2.57774049906316    0.02018733982055
H        55.13401290425036    2.69216191766144   -0.01305729536851
H        53.20083118568010    4.56532323675373   -0.02281508413244
H        50.59083600315366    4.49246223264840   -0.02622163410116
H        47.96945605587552    4.50223298278088   -0.03453398950070
H        46.08689462602990    2.58044266517226   -0.04056653503645
H        46.14856158581876   -0.04048550585369   -0.03844720862058
H        46.14363049814911   -2.66224813823078   -0.03461763977109
H        48.06738519293049   -4.54274795906842   -0.01708142586558
H        50.68793800634101   -4.47606053712661    0.00244749073416
Zn      144.80616331331109    0.04259279209330   -0.01312949101401
C       142.28146131526540    3.43056228537039    0.58901237892890
C       141.32584386520665    2.48463436648142    0.42204903647260
C       142.01178627373841    1.24316931212119    0.20289472741126
C       141.36973465330669    0.01179243503274   -0.00737647705351
C       142.03245622678972   -1.20817141570240   -0.21841987883185
C       141.36813203258288   -2.46188775003516   -0.43405410499580
C       142.34004129453908   -3.39044267291484   -0.60452576624372
C       143.59459128377364   -2.70184738386188   -0.49210852721533
N       143.37561625576768   -1.37759146323545   -0.25633315241570
C       144.83425192576132   -3.30762693780186   -0.61110362944653
C       146.06276514460146   -2.67644621051287   -0.50882989003622
C       147.33436221254195   -3.33519673939613   -0.63747586020623
C       148.28368419191975   -2.38492764825991   -0.47202908384469
C       147.59280060071475   -1.14468035564271   -0.24216257028864
N       146.25037170671385   -1.35176596589645   -0.27107670040248
C       148.21453213717726    0.07369969243136   -0.02246926032797
C       147.57204971356165    1.28059362821311    0.20089774257469
C       148.24151833140846    2.53314947369472    0.42741331199781
C       147.27597484143300    3.46591128615615    0.59853908562168
C       146.01591652913015    2.78415159664718    0.47653468072081
N       146.22627078572614    1.46318572719974    0.23725001826878
C       144.77668829661505    3.39289528598419    0.58523977641845
C       143.54774168033984    2.76472006058679    0.47169183154030
N       143.35173924629677    1.43672053426114    0.23651117033898
H       142.15565428596474    4.47986306470937    0.77445678469858
H       140.25926180215754    2.59865766068494    0.44311475867885
H       140.30367134087820   -2.59502864961979   -0.45092655091551
H       142.23252613698276   -4.44186630227522   -0.78947967115508
H       144.84256428073743   -4.37188667836317   -0.80157073791095
H       147.46385225502286   -4.38328251480916   -0.82837477212970
H       149.35090392452014   -2.49432995349411   -0.49948544586539
H       149.29550675482182    0.08352117571916   -0.02554600798033
H       149.30669897722649    2.66198724245091    0.44903079313681
H       147.38732717011973    4.51611696439677    0.78922875858655
H       144.76653929603310    4.45710337253113    0.77588672265150
C        55.47297073791949    0.05946900672361   -0.00085691916354
C        56.69123415379045    0.06801791197195   -0.00147718389573
C        58.03324617289746    0.07302668452105   -0.00065023182516
C        59.25165293895064    0.07528976048619   -0.00452434658629
C        68.92519589454676    0.05229109138272   -0.02329062386911
C        70.14382844100767    0.05000791814632   -0.02452325198108
C        71.48549508444563    0.04915123740135   -0.02068249038876
C        72.70414845793960    0.04660641794367   -0.02052383044493
C        82.37853481629701    0.04352712096474   -0.02234551031899
C        83.59722076718774    0.04471685794791   -0.02116510975386
C        84.93892834050718    0.04548809672278   -0.02291951910053
C        86.15763787193883    0.04563328836565   -0.02106570420052
C        95.83259729147952    0.04576119070305   -0.01973892725324
C        97.05130600037393    0.04371658112147   -0.02061388130167
C        98.39303600497813    0.04595188637855   -0.01850950480986
C        99.61173248292579    0.04551875054725   -0.02224076396618
C       109.28664772522171    0.04588345361591   -0.02249368072723
C       110.50531373576602    0.04497944260705   -0.02332066927941
C       111.84700933359477    0.04400749906716   -0.01937799089702
C       113.06568941622893    0.04746515045510   -0.01942185581370
C       122.73989234596188    0.04664873203369   -0.02437035337018
C       123.95853752359734    0.04521778503573   -0.02224118678456
C       125.30018566196027    0.04062381160030   -0.02096626112302
C       126.51881798400399    0.03614434429926   -0.02242302001772
C       136.19215267085676   -0.00564841652121   -0.00973983590040
C       137.41050845108109   -0.00304122270201   -0.01468337837872
C       138.75266981987093   -0.00152544393141   -0.01182622204386
C       139.97088518486612    0.00162939424071   -0.00642966261820
Zn       64.08830822028114    0.06435429042231   -0.01449035007246
C        61.58639673643327   -3.36839230414586    0.38545833903206
C        60.62395094447734   -2.42014594500257    0.27967457786082
C        61.30096682604794   -1.16378971420051    0.13290735365458
C        60.64972374581066    0.07312937331796   -0.00659201142107
C        61.30644101186268    1.30669647062048   -0.14896997945809
C        60.63512052533866    2.56641403989719   -0.29291959888264
C        61.60189403170714    3.50968438358080   -0.40379563713570
C        62.85941007323932    2.82318903303354   -0.32711724673220
N        62.64844642823572    1.48556393510216   -0.17244403311725
C        64.09611882059660    3.44131877937356   -0.40019989706858
C        65.32980641988934    2.81713484567329   -0.33078252776758
C        66.59045754640906    3.49761119686277   -0.41002357064480
C        67.55290404922823    2.54943854162132   -0.30379210730940
C        66.87593584769166    1.29264991050407   -0.16010681065917
N        65.53488524363893    1.47808165176444   -0.17900658964982
C        67.52738086207800    0.05555510952821   -0.02132889582511
C        66.87039443623760   -1.17829312288107    0.11921549050291
C        67.54158786296566   -2.43853341200627    0.25928549142536
C        66.57477329590824   -3.38184788607333    0.36893922775501
C        65.31730521247358   -2.69490804141880    0.29534343685896
N        65.52850079614313   -1.35685719041839    0.14323632069249
C        64.08079097748214   -3.31279934408837    0.37003555333214
C        62.84698448164959   -2.68827372264555    0.30311771792282
N        62.64212400019985   -1.34947587322057    0.15022046869185
H        61.46812005169220   -4.42774780439818    0.50781629215651
H        59.55821724534261   -2.54197097072994    0.29765034561469
H        59.56991909945073    2.69356457225755   -0.30589502515658
H        61.48846480903141    4.56956335164482   -0.52619039822283
H        64.09854124122421    4.51557861881142   -0.52327996584751
H        66.70864663755013    4.55720748794576   -0.53036275951717
H        68.61864740142681    2.67159630410700   -0.31914329508725
H        68.60674823849401   -2.56610199559118    0.27023436605035
H        66.68804828647562   -4.44208622958959    0.48831926682041
H        64.07824529546592   -4.38712124877615    0.49254107895965
Zn       77.54124494657346    0.04473214976345   -0.02134381391973
C        75.04599432635828   -3.39214376458981    0.38609774806096
C        74.08150653637993   -2.44649776595845    0.27539063023768
C        74.75582097414782   -1.18918332771002    0.12495076486407
C        74.10195528340481    0.04557359769163   -0.02243539086290
C        74.75672875313795    1.28000134897191   -0.16913376313819
C        74.08311457529476    2.53775872070366   -0.31936289716449
C        75.04812861697208    3.48288229916478   -0.42989187228534
C        76.30687237873448    2.79954270340594   -0.34623407560881
N        76.09831284899525    1.46177247735981   -0.18851838423570
C        77.54232170754014    3.42048196494398   -0.41546447165922
C        78.77736722435900    2.79963155161784   -0.33966522607333
C        80.03652393440642    3.48318254888921   -0.41560892164837
C        81.00100104872382    2.53750696350916   -0.30537735080642
C        80.32669328417410    1.27926157638557   -0.16233369052495
N        78.98523582677501    1.46133860327371   -0.18529746409987
C        80.98069965479660    0.04376161760340   -0.02125839740606
C        80.32594385801347   -1.19124786106387    0.12027674916156
C        80.99947608642705   -2.44981164845124    0.26401076763809
C        80.03443220969172   -3.39481766669770    0.37506711556184
C        78.77567585345129   -2.71060423164027    0.29850528177380
N        78.98434456861870   -1.37255590271925    0.14303547692809
C        77.54028313825484   -3.33084224234168    0.37382704671052
C        76.30514231054013   -2.70938786824277    0.30349457635721
N        76.09732777077369   -1.37156676798877    0.14548677072094
H        74.92997524400491   -4.45135266988060    0.51177248417842
H        73.01602473787072   -2.57078918629350    0.29156983525259
H        73.01770778581584    2.66258896298681   -0.33623718385760
H        74.93272538189822    4.54210165638002   -0.55608620705041
H        77.54260451637231    4.49445616495520   -0.54105865618010
H        80.15247988332726    4.54293605492765   -0.53669131628316
H        82.06647335267247    2.66231952272741   -0.31746299344741
H        82.06488298510696   -2.57520683543644    0.27644418251948
H        80.14975121876871   -4.45451165239938    0.49728325268280
H        77.53999305535920   -4.40481171805641    0.49946237530752
Zn       90.99507345944205    0.04588219328122   -0.02188440303786
C        88.50088110612607   -3.39269288109268    0.37674539208786
C        87.53607842936373   -2.44732038977153    0.26663065373901
C        88.20995572539779   -1.18914250202756    0.12118718843391
C        87.55548053338586    0.04590915914417   -0.02152458100681
C        88.20986699420718    1.28098393906694   -0.16436387449391
C        87.53602813058505    2.53920075052775   -0.30955789229297
C        88.50085606584095    3.48450263709690   -0.42013963906337
C        89.75976735470134    2.80073086543277   -0.34227660358036
N        89.55143471026912    1.46268731236154   -0.18663098022275
C        90.99508919086848    3.42136322411897   -0.41627625793604
C        92.23037937751339    2.80040344452659   -0.34478656983534
C        93.48929454372870    3.48383464565004   -0.42560037401064
C        94.45412841661042    2.53859887077343   -0.31459526483581
C        93.78030335139039    1.28071754359004   -0.16634730621200
N        92.43873606244067    1.46252892997296   -0.18762641627707
C        94.43473291689300    0.04598511983433   -0.02070046267276
C        93.78024256930414   -1.18881025361967    0.12422782137165
C        94.45408533000635   -2.44671526761034    0.27223254176566
C        93.48927179608631   -3.39212465689379    0.38185891596521
C        92.23036225041990   -2.70875793901613    0.30049410734360
N        92.43869353746221   -1.37076128071425    0.14431408918729
C        90.99508758582536   -3.32978213160509    0.37145335549223
C        89.75979682460881   -2.70904384371594    0.29803900219105
N        89.55150560391331   -1.37096386344542    0.14261993990534
H        88.38525575623352   -4.45227244771471    0.49963159337311
H        86.47064078584694   -2.57224403900190    0.28067163218963
H        86.47059492452041    2.66424836949757   -0.32284841559666
H        88.38524676308292    4.54411308357292   -0.54278027845768
H        90.99510337977601    4.49534315423418   -0.54184540574831
H        93.60487539191767    4.54319981539044   -0.55037471700181
H        95.51956358559589    2.66345493823843   -0.32952470030959
H        95.51951561361940   -2.57147795067598    0.28801357172329
H        93.60485828011258   -4.45156655472420    0.50595989814071
H        90.99507989660565   -4.40381487496001    0.49655075352623
Zn      104.44922633444484    0.04527423753565   -0.02113430536804
C       101.95509287411298   -3.39214624332281    0.38744779285503
C       100.99023245115127   -2.44709243289926    0.27515687274047
C       101.66401708100048   -1.18937911997862    0.12532278970963
C       101.00959754973277    0.04518529653447   -0.02179791530202
C       101.66408132453633    1.27976641474048   -0.16852588719423
C       100.99018873869814    2.53744308032974   -0.31829777060227
C       101.95496492886100    3.48266455494546   -0.42983061274707
C       103.21390246289103    2.79940947973255   -0.34796220112350
N       103.00561524010946    1.46169507136257   -0.18934817912505
C       104.44915914916304    3.42025069689022   -0.42079974565432
C       105.68445212499077    2.79958552781725   -0.34685262477554
C       106.94337854688615    3.48299736450028   -0.42749794770722
C       107.90816629678997    2.53780038901273   -0.31578925351087
C       107.23427454672863    1.28002728936538   -0.16693489314275
N       105.89273879457700    1.46183680467468   -0.18860662083830
C       107.88880635035272    0.04536924743985   -0.02114920723257
C       107.23451276892928   -1.18945903463427    0.12422468017946
C       107.90836410174261   -2.44740639416292    0.27174364324534
C       106.94354128658964   -3.39252202630146    0.38392093420199
C       105.68461756362903   -2.70898286738413    0.30420127302665
N       105.89295064720469   -1.37121220236373    0.14626320822707
C       104.44929411262521   -3.32956187970475    0.37864122732172
C       103.21399353246467   -2.70877979115113    0.30582526915382
N       103.00558814482171   -1.37112537612323    0.14685775112857
H       101.83954137062723   -4.45135510192187    0.51356884375665
H        99.92480678642463   -2.57197814513241    0.29023390138889
H        99.92474932688081    2.66217381553914   -0.33387660502262
H       101.83934597289846    4.54189930822248   -0.55565175733229
H       104.44915344880596    4.49404708119437   -0.54790891266476
H       107.05901725506831    4.54230432968910   -0.55269970588694
H       108.97360831246425    2.66262172856945   -0.33050906043870
H       108.97379537692036   -2.57237694384315    0.28567367688853
H       107.05916087804280   -4.45188251646262    0.50868396040143
H       104.44928441838819   -4.40334753950373    0.50587990022608
Zn      117.90288703576313    0.04751662676792   -0.02127197245344
C       115.40877704690925   -3.39007031581866    0.38706402636880
C       114.44401788481224   -2.44496819673387    0.27439294956204
C       115.11793124963677   -1.18724915528664    0.12501832246708
C       114.46352721206537    0.04743582298208   -0.02125423805960
C       115.11783631175220    1.28210380752713   -0.16767376292048
C       114.44385856317965    2.53984681751525   -0.31640658216651
C       115.40858395838383    3.48499713969727   -0.42894019943502
C       116.66758205811810    2.80165120857496   -0.34851793424689
N       116.45936342250768    1.46393955206993   -0.18962971722833
C       117.90277905991520    3.42231942282174   -0.42346485944287
C       119.13810436403877    2.80150298047197   -0.35078994498173
C       120.39705377849161    3.48456028913641   -0.43394616816111
C       121.36181619993442    2.53937869586613   -0.32166434489194
C       120.68785414671956    1.28197051151071   -0.17033097511179
N       119.34629720199376    1.46396483244713   -0.19080919104782
C       121.34210395654502    0.04751554321321   -0.02240984301787
C       120.68780524324563   -1.18694798834344    0.12612642072233
C       121.36185668172149   -2.44436037660388    0.27722344953451
C       120.39717114444409   -3.38951480247602    0.39024235098119
C       119.13818957818332   -2.70645194398364    0.30794577778585
N       119.34629355092608   -1.36889977005733    0.14794436374278
C       117.90294190970452   -3.32730533844802    0.38129574859454
C       116.66772111479010   -2.70670460970893    0.30638136286447
N       116.45945063548915   -1.36904504681533    0.14706448894383
H       115.29315424159175   -4.44930358281484    0.51292038246703
H       113.37858544134374   -2.56984828310192    0.28877931242889
H       113.37840620224374    2.66463000716208   -0.33088422858318
H       115.29289763789757    4.54425254421396   -0.55454483639127
H       117.90272824355905    4.49603587066778   -0.55125328458499
H       120.51274936316857    4.54363642039601   -0.56108069173443
H       122.42727134708689    2.66396070245525   -0.33784370208508
H       122.42729853672213   -2.56902076643064    0.29252021916219
H       120.51294902688244   -4.44859069460210    0.51723001733758
H       117.90300041886850   -4.40096640811533    0.50952344608209
Zn      131.35547872638071    0.01503458510349   -0.01889347003385
C       128.84571718902532   -3.41425771681446    0.36195112955312
C       127.88543215546535   -2.46374946588314    0.25727896310615
C       128.56526461428277   -1.20821210046293    0.11642595312792
C       127.91662600910929    0.03024813369535   -0.02274163283217
C       128.57630845067158    1.26296167900758   -0.16077369538242
C       127.90791766846495    2.52448328216026   -0.30309084882172
C       128.87682362417854    3.46639546364447   -0.40620017246736
C       130.13279029146406    2.77737465548348   -0.32629549300660
N       129.91859738443046    1.43937543893936   -0.17796994342386
C       131.37071111902904    3.39367177736253   -0.39003666751517
C       132.60307746444138    2.76706256324895   -0.31591251812116
C       133.86524485027294    3.44569999286785   -0.38558418489693
C       134.82553210252928    2.49545217919501   -0.27829471387513
C       134.14563568096466    1.23924905915667   -0.14364782450903
N       132.80485881887660    1.42722097435329   -0.16851439739348
C       134.79387570912451   -0.00009587388064   -0.01283724921388
C       134.13449274202154   -1.23366370817848    0.11490664324872
C       134.80306383596377   -2.49586189276797    0.24993991491987
C       133.83421498267103   -3.43788046911018    0.35277259321800
C       132.57820270623998   -2.74815942204773    0.28003586009937
N       132.79206244327011   -1.40999317771629    0.13470064012602
C       131.34012403831792   -3.36381363629066    0.35067482970205
C       130.10790804495133   -2.73641994582276    0.28470074325436
N       129.90588780433797   -1.39651717546369    0.13631872864365
H       128.72512446499587   -4.47381683016599    0.48016912976196
H       126.81942243275167   -2.58359218778308    0.27183868503202
H       126.84303411619247    2.65376446694657   -0.31981461339226
H       128.76591043765956    4.52696767053494   -0.52487090137417
H       131.37576345786326    4.46839229588079   -0.50891525991723
H       133.98594989528408    4.50550792807655   -0.50143113462602
H       135.89154177767696    2.61576822961632   -0.28862106760193
H       135.86800096479740   -2.62526646402188    0.26354240730738
H       133.94529986877293   -4.49887467745383    0.46743130238680
H       131.33524956775074   -4.43861352631106    0.46882634443200
