160
 energy: -292.577900674518 gnorm: 0.000883924037 xtb: 6.4.1 (bd6e46d)
Co       17.90862135142857   -0.00550674191297   -0.00652057054951
C        20.40497591168903   -3.41535318055115    0.04066676520812
C        21.35745949102283   -2.45566837687505    0.02492356716571
C        20.66748760694011   -1.20208265501532    0.00862181312331
C        21.33301586219271    0.02567053103660   -0.00155030260786
C        20.64583225339313    1.24141771474241    0.00208305497689
C        21.31276183368575    2.50740811434090    0.01272720807471
C        20.34287515491570    3.44956799859326    0.02597168017231
C        19.09487306071548    2.74887370886196    0.01956006827205
N        19.29139715520033    1.39262249231833    0.00577568982121
C        17.87495394810038    3.38964006649536    0.01905261487514
C        16.66858544767791    2.72477360485570   -0.00512177435430
C        15.40310869260306    3.39847547656452   -0.02393225847175
C        14.45666197455384    2.43567430126699   -0.05730331370271
C        15.15126648180029    1.18113314566670   -0.05473153264429
N        16.50482890023782    1.36757200871051   -0.02336054008680
C        14.50582100021533   -0.03646980097364   -0.07369080260603
C        15.17318669644139   -1.24218045092913   -0.05300253243133
C        14.50144072529544   -2.50910991420441   -0.05393007646317
C        15.46515811646890   -3.45452788901174   -0.01754387844324
C        16.71817780762547   -2.75795798118029    0.00139816889822
N        16.52984923447672   -1.40398477633476   -0.01992632905134
C        17.93640020083053   -3.40067318501786    0.02951289274931
C        19.14438047573675   -2.73761435380002    0.03014348759885
N        19.31603510870606   -1.37807730686393    0.01153987109173
H        20.52233450557794   -4.48136231062640    0.05592808922848
H        22.42482812812805   -2.56128678329303    0.02541499105940
H        22.37798181219848    2.63266253904410    0.01200544791047
H        20.44071690307635    4.51763361226926    0.03724165886178
H        17.86549708858073    4.46893058572364    0.03131362480298
H        15.28309598218346    4.46448155633302   -0.01422602084198
H        13.38898546866479    2.53771021063227   -0.07998945825122
H        13.42690851848431   -0.04622515440059   -0.09881454875542
H        13.43582886405945   -2.63057382273469   -0.07756071494315
H        15.36448898112233   -4.52252060049880   -0.00578200043472
H        17.94663705117620   -4.47990772315291    0.04483442340885
Co       65.86690011419873    0.03186377950826   -0.00559478157921
C        63.38026361448189    3.38241106127799    0.66665457620204
C        62.42499765019448    2.44512207605833    0.47315689429661
C        63.11132174752464    1.21440786410021    0.22418328271820
C        62.44261538299521    0.01149757483651   -0.01260165340571
C        63.12647784987332   -1.18651189766160   -0.22990137009499
C        62.45577591839871   -2.43069986671379   -0.45361401329324
C        63.42284393520572   -3.36329507588935   -0.60705380240932
C        64.67292358942179   -2.67792977148567   -0.47954269227175
N        64.48046479860227   -1.34090159573097   -0.24836249238352
C        65.89093961290835   -3.31324197616298   -0.58730458467065
C        67.09927863721275   -2.65923955401526   -0.48663076375073
C        68.36295862728032   -3.32336585977965   -0.61968406652906
C        69.31212441902206   -2.37256562564973   -0.48220375854721
C        68.62096309559682   -1.13558590462515   -0.26182844244073
N        67.26685194730939   -1.32052568187896   -0.26553609174496
C        69.26969125605916    0.06497647273042   -0.06861718508518
C        68.60563085881857    1.24999433481331    0.16445225197907
C        69.28086087109622    2.49538148983600    0.38675516155500
C        68.31994542831632    3.42097021567208    0.59604150997827
C        67.06506898313312    2.73483323484478    0.49543340906319
N        67.24953129557137    1.40631590922604    0.23053280214881
C        65.84880319278643    3.36413927915250    0.64584993470442
C        64.63889977168758    2.71491073848407    0.52942122626566
N        64.46328568304175    1.38271620367349    0.25998564434784
H        63.26600684892537    4.42729982398106    0.88015122115644
H        61.35793093679965    2.55177583289182    0.49413748052173
H        61.39022923597743   -2.54965687361662   -0.48244222771569
H        63.32177259620941   -4.41522898611973   -0.79055089048454
H        65.89724021358820   -4.37744822589326   -0.76763281974058
H        68.48002758033500   -4.37501573023767   -0.79630320322024
H        70.37957254997558   -2.47248846402344   -0.52000391905840
H        70.34861196114829    0.07619229533069   -0.09279348762562
H        70.34671122556576    2.61692673238505    0.38070757027072
H        68.42365901211538    4.46939611781904    0.79835571192307
H        65.84171958565173    4.42245808813884    0.85799816607698
C        22.73031142545734    0.03702562466702   -0.00700203276810
C        23.94972774150850    0.05462877478491   -0.01093576888669
C        25.28666339799106    0.06080656037610   -0.01529603794881
C        26.51071167213867    0.06400231233316   -0.01089954787167
C        27.84746222534879    0.06574719707471   -0.01494201290865
C        29.06718755515925    0.06686559525914   -0.01396655332056
C        38.71939260833625    0.04875927294832   -0.03166845906126
C        39.93920731840278    0.04261472216049   -0.03455818157744
C        41.27577885868515    0.03689911367970   -0.03801821536533
C        42.49998351243590    0.03198361331698   -0.03741654697178
C        43.83655384144294    0.02478096854528   -0.03799082239974
C        45.05637237008686    0.02180622586350   -0.03281813541065
C        54.70830112460212   -0.01779271846059   -0.03074992741995
C        55.92796807455964   -0.01717800072617   -0.03374602508505
C        57.26480664855292   -0.01509018565450   -0.03088694366958
C        58.48879564643455   -0.01133302180482   -0.03525253524735
C        59.82575048058622   -0.00535577580926   -0.02815121989656
C        61.04520581364753    0.00433842507219   -0.02181565311002
Co       33.89314417552842    0.05872201180063   -0.01864960479631
C        31.42014732011468   -3.34566290363674    0.38451809039619
C        30.45972220776394   -2.40000031404922    0.27490125368057
C        31.13958176635294   -1.14967306681168    0.12619908130270
C        30.46389370953614    0.06468430564949   -0.01561783846682
C        31.14354601476173    1.27671247124052   -0.15745402390461
C        30.46774757599237    2.52957746150553   -0.30309697178107
C        31.43127608790643    3.47224459893081   -0.41143685566360
C        32.68343460100728    2.78424219322057   -0.33090888678149
N        32.49638507188914    1.43547405286331   -0.17552224653343
C        33.89886741701054    3.42836220717125   -0.40345728166914
C        35.11228210804249    2.78064249334948   -0.32997040293999
C        36.36676661121314    3.46462285724198   -0.40899166074973
C        37.32711111687181    2.51826753153313   -0.30468074865947
C        36.64711897115514    1.26718527338090   -0.16272032226764
N        35.29493052878063    1.43079764421434   -0.17802422880125
C        37.32281637876654    0.05201824280486   -0.02751201765037
C        36.64307802804146   -1.16022741048649    0.11345989047406
C        37.31892237063406   -2.41339662832026    0.25572092255134
C        36.35552723479380   -3.35562310107446    0.36876481479917
C        35.10331814773090   -2.66706609718173    0.29398626829800
N        35.29036755059734   -1.31843329389224    0.13691780395375
C        33.88782334137726   -3.31015783307439    0.37335052772464
C        32.67449662062339   -2.66204433773139    0.30135555253027
N        32.49184001158701   -1.31295442977246    0.14318310364209
H        31.31195038629322   -4.40546665702092    0.50938340916916
H        29.39321702472122   -2.51308393552883    0.29014922176587
H        29.40164062953436    2.64618155921589   -0.31790042657575
H        31.32643733711982    4.53249857748990   -0.53470127669716
H        33.90046039033873    4.50093337417322   -0.52556622025503
H        36.47523807791222    4.52498603811722   -0.52836816190870
H        38.39359784807721    2.63143928187990   -0.31956987104238
H        38.38500292074982   -2.53073765806345    0.26503101548775
H        36.46054012244566   -4.41599138489207    0.49106332604586
H        33.88589193905653   -4.38238174110930    0.49845417443020
Co       49.88237780394547    0.00292435968884   -0.01851672904193
C        47.40039523716789   -3.39285645786630    0.40350449722520
C        46.44239970397315   -2.44573991400959    0.28544662520004
C        47.12547432216944   -1.19846971560595    0.12630327098708
C        46.45294529103555    0.01601966457354   -0.02872814021517
C        47.13584022720782    1.22593003001900   -0.17480739051609
C        46.46319613594343    2.47946398109523   -0.32899418034401
C        47.42894862589198    3.42070400703595   -0.42955224863192
C        48.67934652591435    2.73104362161319   -0.33679845560386
N        48.48890716012320    1.38256905078459   -0.18240565863726
C        49.89637719377330    3.37342149897054   -0.39594148129748
C        51.10800571985207    2.72330383424132   -0.31430932303538
C        52.36416916499810    3.40541969466774   -0.38154099402311
C        53.32212900595394    2.45638539385001   -0.27979612866349
C        52.63900770408486    1.20566112317172   -0.15070053912162
N        51.28714967868807    1.37217874877210   -0.17012575394546
C        53.31150807342566   -0.01244240562275   -0.02769185325518
C        52.62881316007163   -1.22394264116862    0.10320195152700
C        53.30143075518005   -2.47990946075355    0.23661161438681
C        52.33562947776318   -3.41904367826741    0.35491693542177
C        51.08525494129938   -2.72603078987609    0.29083184018349
N        51.27564596716478   -1.37789781472019    0.13388782050122
C        49.86827590621625   -3.36486586018810    0.38180592638965
C        48.65658504322469   -2.71335493355722    0.31365737838121
N        48.47729870868597   -1.36497169391302    0.14572408346270
H        47.28929143117711   -4.45118647884366    0.53754309884500
H        45.37564131010389   -2.55610831218471    0.30153593412542
H        45.39744196761082    2.59774465146621   -0.35291737305405
H        47.32669047075089    4.48102998965127   -0.55446403582467
H        49.90099690303263    4.44633521946329   -0.51489205068283
H        52.47521809190459    4.46643239421802   -0.49277040409237
H        54.38888702027734    2.56744719907314   -0.28903995441912
H        54.36719494921064   -2.60072016433275    0.23799271369330
H        52.43779921974596   -4.48002444999036    0.47435787610702
H        49.86390899893944   -4.43658390699249    0.51108438528655
