193
 energy: -357.523962208636 gnorm: 0.000481280700 xtb: 6.4.1 (bd6e46d)
Ni       28.98833948348372    0.00386640797948   -0.00922793788336
C        31.48713996369500   -3.40979618022170    0.03434124999871
C        32.43876967134054   -2.44931966109187    0.02410120246063
C        31.74907287735619   -1.19445751658276    0.00875392934048
C        32.41465062521075    0.03480984019925   -0.00054933798753
C        31.72644857207892    1.25156935286171   -0.00194193206534
C        32.39335744889377    2.51876193644542    0.00456306519652
C        31.42455866479642    3.46192582358820    0.01209963868477
C        30.17393858465894    2.76386066073824    0.00726829238426
N        30.37405495560318    1.40901830803455   -0.00082053757224
C        28.95354631157554    3.40693634901047    0.00537297429864
C        27.74636102197648    2.73955330472206   -0.01279932879460
C        26.47875278370282    3.41127833593212   -0.02834078434196
C        25.53248949397357    2.44801624890334   -0.05287817129709
C        26.22616595963882    1.19183618777007   -0.04919376658405
N        27.57790013213713    1.38405486890719   -0.02491763044439
C        25.57928625664314   -0.02701662999281   -0.06307577563419
C        26.24855989097489   -1.23369503898086   -0.04635301905725
C        25.57779499639478   -2.50226604218874   -0.04758794042509
C        26.54133779098776   -3.44812297631158   -0.01930223210135
C        27.79653719784671   -2.75347792949812   -0.00375613717192
N        27.60358050816239   -1.40124811984877   -0.02030728541186
C        29.01538039558618   -3.39917051370159    0.01982128950102
C        30.22413089474226   -2.73450001143193    0.02253962843360
N        30.39981503656635   -1.37637387561799    0.00797660870782
H        31.60607641678283   -4.47574537908769    0.04706696022365
H        33.50623112553958   -2.55405993983623    0.02701506062214
H        33.45876816571027    2.64271471069928    0.00500381366661
H        31.52421395656978    4.52989816096534    0.01918353751011
H        28.94402230135151    4.48612670840536    0.01365334957221
H        26.35780652698644    4.47727006198807   -0.02235828133166
H        24.46471097249564    2.55039553435426   -0.07073918825888
H        24.50039798943199   -0.03705352195634   -0.08313537751819
H        24.51206433139784   -2.62398637590863   -0.06632050882844
H        26.43976168565623   -4.51611190541966   -0.01042839961151
H        29.02491764260747   -4.47832530516341    0.03218840973826
Ni       82.70829426554583    0.03942262419903   -0.00790638866193
C        80.21803667907402    3.40594085592957    0.59374567099697
C        79.26409111193792    2.46409748325937    0.41729599412088
C        79.95067792038900    1.22605989310681    0.20169229168245
C        79.28203105235949    0.01537959525271   -0.00122286552649
C        79.96708557583776   -1.18731019045227   -0.19642028131580
C        79.29715581630842   -2.43742886392559   -0.39396450942496
C        80.26369778308607   -3.36938742642268   -0.55340582673433
C        81.51592924268989   -2.68123110280603   -0.45453872209620
N        81.31909570378825   -1.34418082763999   -0.23279966874446
C        82.73457201457705   -3.31477931405879   -0.58295258052113
C        83.94319271219931   -2.65520216310272   -0.49815979850880
C        85.20886939832992   -3.31474556343625   -0.64434068270743
C        86.15751748615217   -2.36430297944723   -0.50077815955073
C        85.46723410238575   -1.12852986257666   -0.26501429001736
N        84.11513096128130   -1.31964402522485   -0.26869851379896
C        86.11741115886475    0.07044868531966   -0.05530085650136
C        85.45135734432898    1.25553126213533    0.18183383270886
C        86.12546315472143    2.50091866185908    0.41381262892835
C        85.16424384773853    3.43014707602009    0.60469120519952
C        83.90711212408091    2.74911895825762    0.48570961303136
N        84.09666124661464    1.42065178437890    0.23018203112968
C        82.68975350807997    3.38655090065249    0.60703138327615
C        81.47937744107668    2.73676900812233    0.48153235379980
N        81.30044808494051    1.40076257842724    0.23949001516037
H        80.10169076549285    4.45554325907356    0.78176290011980
H        78.19689115799999    2.57090199102425    0.43012151696076
H        78.23147780322475   -2.55866505489010   -0.40481345241038
H        80.16153244117596   -4.42344029177067   -0.72395070559043
H        82.74138262041207   -4.37893768745968   -0.76275300640579
H        85.32702051030468   -4.36446186014211   -0.83181331381918
H        87.22488643093266   -2.46333437300225   -0.54403589252385
H        87.19633241951271    0.08103882861055   -0.07316301754888
H        87.19161934171100    2.61982806215036    0.42464011926048
H        85.26855420598359    4.47878213448897    0.80589219038597
H        82.68275975683117    4.44743135661051    0.80525081702800
C        33.81182539263559    0.04741448627801   -0.00178583901091
C        35.02931064211131    0.05824704778006   -0.00504551383472
C        36.37120708258956    0.06460383539167   -0.00823630882354
C        37.58884375300578    0.06931006716360   -0.00849349829214
C        47.24386775752584    0.05049769270744   -0.02087956612566
C        48.46162975888409    0.04806674908518   -0.01828614754493
C        49.80307276954937    0.04463963237413   -0.01956895730180
C        51.02084605286432    0.04583518328824   -0.01896566356780
C        60.67550908957571    0.04026115825926   -0.02078450835743
C        61.89327787135117    0.03594837160199   -0.02096072242044
C        63.23472076599930    0.03228173534904   -0.02015709426951
C        64.45247657326230    0.02858156264884   -0.02071472078455
C        74.10756419784684   -0.00457732623559   -0.01382581299947
C        75.32514962827173   -0.00308120356873   -0.01103104180079
C        76.66719068128417    0.00048524133169   -0.00904033182496
C        77.88465584860735    0.00689188269002   -0.00485173858365
Ni       42.41663457548633    0.06039561465967   -0.01665376152216
C        39.93936392036079   -3.34901000566702    0.36752405567222
C        38.98059564602008   -2.40121198401980    0.26222141052004
C        39.66111519011771   -1.14923519902500    0.12262683265479
C        38.98549569716236    0.06776416367692   -0.00987622991872
C        39.66577936176037    1.28169572733279   -0.14520646631340
C        38.99010756997962    2.53642403084837   -0.28340945212311
C        39.95252440692585    3.47988213858260   -0.39447786319309
C        41.20712717322024    2.79375439400425   -0.32302578682608
N        41.01657973028387    1.44619057738583   -0.16945470776301
C        42.42307446118363    3.43947370574827   -0.40331175306764
C        43.63654604206947    2.78815669569024   -0.33404241428184
C        44.89380091803473    3.46809839523216   -0.41760636275475
C        45.85257551176327    2.52054556346777   -0.31009951200100
C        45.17208450173181    1.26951693550151   -0.16230898688720
N        43.82205555358880    1.44006139776505   -0.17816554380538
C        45.84757886267593    0.05343054435475   -0.02097448487316
C        45.16717095815476   -1.15986314751812    0.12104555079906
C        45.84294962096631   -2.41376210985391    0.26628952162640
C        44.88057810282282   -3.35760940705877    0.37402040223669
C        43.62593943858607   -2.67246808189820    0.29427116010737
N        43.81651838804815   -1.32486670890407    0.13993915084863
C        42.41011170611610   -3.31907075876274    0.36601648184504
C        41.19657284263126   -2.66826072184514    0.29141698705280
N        41.01120005818075   -1.31963674746675    0.14072881723562
H        39.82864481315715   -4.40929766215473    0.48589351134410
H        37.91397630543009   -2.51284086837520    0.27558358310329
H        37.92389166127688    2.65259690273719   -0.29184126167286
H        39.84596917705847    4.54048192107610   -0.51395023102227
H        42.42499561848329    4.51174689960683   -0.52650253639263
H        45.00447976219340    4.52777225975860   -0.54146013440946
H        46.91921815821224    2.63182241745284   -0.32655380482826
H        46.90915288023708   -2.52936757282479    0.28018817952703
H        44.98714342591300   -4.41792397708007    0.49592868741412
H        42.40812938000818   -4.39155636496079    0.48730907280095
Ni       55.84816408914798    0.04336460919843   -0.01927188078719
C        53.37585955393065   -3.36731059182145    0.38618702507975
C        52.41571975059760   -2.42160861261661    0.27448238208558
C        53.09444591730640   -1.16976502933846    0.12558669783616
C        52.41712102800244    0.04503070585003   -0.01849050872212
C        53.09573259724213    1.25909467581222   -0.16253306054176
C        52.41818142855492    2.51164778568255   -0.31088201885109
C        53.37920546102501    3.45641732576545   -0.42281502721100
C        54.63481111775804    2.77320576345003   -0.34189775852863
N        54.44616050120082    1.42598328515978   -0.18235684260599
C        55.84980664348485    3.42097920883882   -0.41836576997274
C        57.06425543020980    2.77219406836938   -0.34173659663606
C        58.32050439728042    3.45425032694828   -0.42234736902217
C        59.28064036870529    2.50847148868301   -0.31118589632863
C        58.60190256051354    1.25648449831754   -0.16354126922226
N        57.25164003838248    1.42471595418065   -0.18297762730494
C        59.27922523869783    0.04157228889269   -0.02072184122645
C        58.60058531980336   -1.17257392300406    0.12284041382657
C        59.27810410460709   -2.42524671727775    0.27033085384636
C        58.31706569945825   -3.36994025688142    0.38269277788215
C        57.06149153469553   -2.68656972763128    0.30287434235147
N        57.25016294825922   -1.33933100796061    0.14349331575706
C        55.84651711168026   -3.33421076645260    0.38052334017664
C        54.63208345651649   -2.68535337420390    0.30459220023024
N        54.44469465246954   -1.33798329260180    0.14491714873815
H        53.26672000949835   -4.42690909830596    0.51196462122074
H        51.34925212379245   -2.53475066086273    0.28850949433202
H        51.35180851750462    2.62576635616777   -0.32436387831213
H        53.27104311158227    4.51613929448086   -0.54840780851343
H        55.85022939678046    4.49285523266427   -0.54500094147181
H        58.42965346296505    4.51396540220757   -0.54716292539223
H        60.34712631869503    2.62159380625465   -0.32476374909928
H        60.34445681097808   -2.53953964618562    0.28301932715199
H        58.42518927107619   -4.42971696360426    0.50782326329720
H        55.84610081882020   -4.40605401926995    0.50741890026445
Ni       69.27966541648811    0.01096436322946   -0.02068039912639
C        66.79695873330802   -3.39336423511843    0.37319403137491
C        65.83973839382691   -2.44371497456256    0.27056558710216
C        66.52226311324480   -1.19382670535948    0.12237439272742
C        65.84876523050859    0.02323462035188   -0.02021739434560
C        66.53122458093125    1.23522224424478   -0.16339245936185
C        65.85758832597337    2.48976725440830   -0.31293414994482
C        66.82152242445234    3.43236862632771   -0.41753576959450
C        68.07500331179624    2.74592396841352   -0.33067768695144
N        67.88216294329081    1.39857707500478   -0.17695690356057
C        69.29184208803207    3.39174838471354   -0.39135024068153
C        70.50424932734272    2.73987721658838   -0.30759515396881
C        71.76252605938578    3.42023310655725   -0.36829477964743
C        72.71974907364113    2.47104679710998   -0.26142860872369
C        72.03724517596858    1.21854330652092   -0.13700005016571
N        70.68739807989111    1.39022949375749   -0.16384710233581
C        72.71074472800143   -0.00079249200573   -0.01667458591285
C        72.02845527379249   -1.21536511928023    0.10106116825750
C        72.70206739662480   -2.47268598980592    0.22535934053836
C        71.73809551656984   -3.41547766456952    0.32815229989964
C        70.48462969874697   -2.72637271536642    0.26581604201460
N        70.67734565959685   -1.37781151401454    0.12439067184558
C        69.26765367786767   -3.37007761955119    0.34697182757374
C        68.05530534135957   -2.71578777657717    0.28692234061932
N        67.87198917721487   -1.36690348437752    0.13519254313368
H        66.68457882369290   -4.45305799891618    0.49533063184545
H        64.77294288001029   -2.55295917992712    0.28989668769446
H        64.79158297603047    2.60655863758201   -0.33184584374431
H        66.71676200292505    4.49265728799988   -0.54125312372917
H        69.29561842080474    4.46452095185186   -0.50999978462947
H        71.87494883177992    4.48122132258525   -0.47850896930586
H        73.78653128836747    2.58198039527015   -0.26540811345499
H        73.76809608440324   -2.59075170178020    0.23164763646565
H        71.84289996135023   -4.47740777351963    0.43684720824202
H        69.26399545521618   -4.44305895403769    0.46376767659795
