242
 energy: -426.079352475950 gnorm: 0.000616267627 xtb: 6.4.1 (bd6e46d)
Zn       29.78680557660730   -0.00046211220473   -0.01024372578331
C        32.32394218119044   -3.43241629566303    0.02171188138565
C        33.27637793001329   -2.46865765530961    0.02238637694622
C        32.58612377514354   -1.21044296985149    0.01175880948830
C        33.22381990533836    0.04134101660415    0.00693909473570
C        32.55609333930666    1.27715981608479   -0.00171101652842
C        33.21569201537049    2.55173762925143   -0.00433799765283
C        32.24020529728404    3.49211560561154   -0.01009547912707
C        30.98831130183403    2.78973582176693   -0.01176673019159
N        31.21235239817669    1.44541356906311   -0.00681279204485
C        29.74638521165222    3.40244819657327   -0.01844357778663
C        28.52013134748183    2.75871298856675   -0.02441067205114
C        27.24609599227432    3.42521598111472   -0.03509374953685
C        26.30031227475599    2.45720243078148   -0.04147088455757
C        26.99582840576988    1.19838101239203   -0.03416833970645
N        28.33746196873928    1.41220116596807   -0.02369341615983
C        26.37867520319589   -0.04193701503135   -0.03764379317795
C        27.02568306659591   -1.26690814607870   -0.02942355633662
C        26.36094386280983   -2.54228015570359   -0.03205316692058
C        27.32991944842675   -3.48700185768563   -0.01987655316646
C        28.58736708344079   -2.78969521466762   -0.01011799914663
N        28.37209442467758   -1.44805068856396   -0.01656724314799
C        29.82884396727318   -3.40338561561051    0.00343973702896
C        31.05546742750192   -2.76059592586608    0.01041120206488
N        31.24686846669688   -1.41121341136504    0.00521536269687
H        32.45336835924781   -4.49752741839887    0.02779720957898
H        34.34331754156921   -2.58158545402460    0.02922364148105
H        34.27961369353230    2.69045845652328   -0.00174634495134
H        32.34384316554988    4.56003650630848   -0.01333677315598
H        29.73424781423040    4.48357777175928   -0.02066675129528
H        27.11278498388053    4.49007032207268   -0.03755394856854
H        25.23268636208819    2.56579691869524   -0.05030402808218
H        25.29777354528161   -0.05504911576094   -0.04725263844248
H        25.29629282796327   -2.67681794579667   -0.04184535207027
H        27.22254532185297   -4.55477938793359   -0.01766788272271
H        29.84302539975048   -4.48447602488050    0.00793480432063
Zn      109.82453341669310    0.03298952617376   -0.01228446028983
C       107.29503506988351    3.40988848957706    0.63207877920602
C       106.34054790546571    2.46453125008773    0.45565994875884
C       107.02808119405249    1.22692212935951    0.22039147551228
C       106.38770601748304   -0.00260368160352   -0.00657857615250
C       107.05243586416312   -1.21907332170810   -0.23317284935528
C       106.38981377820267   -2.47116604997910   -0.46314061079943
C       107.36316278994143   -3.39725928661584   -0.63890273640192
C       108.61665564268445   -2.70836205813816   -0.51744010948552
N       108.39576555258904   -1.38636026725401   -0.27062633308763
C       109.85716561402687   -3.31234421334300   -0.63660549145182
C       111.08482627830257   -2.68100679434432   -0.52567632527122
C       112.35737242010975   -3.33782128917371   -0.65509417029797
C       113.30534030264600   -2.38748338438954   -0.48257103162578
C       112.61268149420373   -1.14923407624052   -0.24719727303415
N       111.27054564499413   -1.35764208164480   -0.27938147474669
C       113.23266743770452    0.06887274935904   -0.02114999160405
C       112.58847631649041    1.27351819319497    0.20926157715243
C       113.25621440679163    2.52561614110118    0.44344126205967
C       112.28939188124187    3.45536378930214    0.62344535239775
C       111.03028171770677    2.77221482352230    0.49915923197008
N       111.24244614747015    1.45359534628431    0.24888042464067
C       109.79019558484961    3.37734392921349    0.61793413884489
C       108.56211142072112    2.74775706893268    0.50287218828165
N       108.36780586635260    1.42215023419367    0.25302085469152
H       107.16787915230942    4.45653047076176    0.83095222330272
H       105.27383066075312    2.57706930599090    0.48063654891358
H       105.32556981307378   -2.60598449617940   -0.48319745318158
H       107.25720658671543   -4.44722974932841   -0.83287641989589
H       109.86683916565642   -4.37520895129156   -0.83459020779356
H       112.48822306444521   -4.38472931665477   -0.85140398663007
H       114.37273104490417   -2.49560107673409   -0.50837800954011
H       114.31362497342617    0.08026266455583   -0.02423684675016
H       114.32122120576852    2.65609948941277    0.46394643480960
H       112.39923459331553    4.50432306759310    0.82171787603323
H       109.77850371280515    4.43964522264033    0.81882894992311
C        34.62158799135523    0.05737058738235    0.00952921039056
C        35.84163446270138    0.06515614503169    0.01008088379321
C        37.17799142807466    0.07148223599168    0.00991807474085
C        38.40245903441799    0.07398037257670    0.00518505275480
C        39.73868921323248    0.07498538575355    0.00178251567759
C        40.95894767102154    0.07371153586943   -0.00331957041714
C        50.63076666712048    0.03913678249176   -0.02420154696418
C        51.85112827468618    0.03774197392226   -0.02367873448717
C        53.18703306679021    0.03524918888149   -0.02274731160575
C        54.41171177354990    0.03480484270874   -0.02296295307398
C        55.74760578295844    0.03483242977336   -0.02175533025629
C        56.96796757475104    0.03454891103100   -0.02149211117743
C        66.63817156838442    0.03712407341863   -0.02237966036862
C        67.85851263315732    0.04163267356901   -0.02145825674730
C        69.19429134356477    0.04187967990792   -0.02224995492220
C        70.41891433334028    0.04126225688281   -0.02080088029650
C        71.75468580952661    0.04220940892256   -0.02078733617528
C        72.97501315766310    0.03772975770573   -0.01954463899816
C        82.64473301751214    0.04572619261784   -0.02330643935892
C        83.86507488406924    0.04856533697531   -0.02350103581635
C        85.20092346478829    0.04814824470836   -0.02321732797348
C        86.42557193110160    0.04760704466657   -0.02225962358119
C        87.76142144378262    0.04442360103798   -0.02219484415274
C        88.98174173626191    0.03997909865717   -0.02125379743964
C        98.65258950268714   -0.01568933914771   -0.01684832914293
C        99.87274958487454   -0.01903101947141   -0.01402946136147
C       101.20900452772462   -0.02104801216941   -0.01450922473421
C       102.43337697006488   -0.02399106332180   -0.00997602175925
C       103.76979615500582   -0.02096027356743   -0.01039435653848
C       104.98981696265784   -0.01544116276841   -0.00792175164515
Zn       45.79500021745054    0.05596046720030   -0.01735512860718
C        43.28933337574422   -3.37360872831456    0.38720889823245
C        42.32778064380554   -2.42450361441833    0.28092100414783
C        43.00609739434269   -1.16894615197376    0.13321284822138
C        42.35610983818213    0.06877802280107   -0.00764085290441
C        43.01446388284002    1.30147219657746   -0.15309530814485
C        42.34462578705534    2.56184790380913   -0.29826862570332
C        43.31260069385281    3.50357669636240   -0.41192313073640
C        44.56918774703971    2.81551262961228   -0.33510698633174
N        44.35663698597399    1.47836689996121   -0.17801012304480
C        45.80651746036743    3.43211025023697   -0.41013772628479
C        47.03952307499866    2.80680724436106   -0.33951934767672
C        48.30084423444167    3.48587407833816   -0.41994240081471
C        49.26234735529916    2.53704584489326   -0.31107928538588
C        48.58389427538847    1.28134764440711   -0.16481748860209
N        47.24308432573000    1.46787254472903   -0.18454769647679
C        49.23385320429418    0.04356473334152   -0.02381555757928
C        48.57551110572637   -1.18970294597787    0.11757592443643
C        49.24546996824120   -2.45058154992592    0.25823170787266
C        48.27757851802275   -3.39271846251085    0.36885025140590
C        47.02088301010915   -2.70434393714029    0.29534718994108
N        47.23346627501232   -1.36660544589276    0.14216137103577
C        45.78365757905598   -3.32068022799647    0.37128884392829
C        44.55056070107923   -2.69475206236872    0.30426233144173
N        44.34705041613523   -1.35583008686060    0.15036517434840
H        43.17004239433390   -4.43276195120231    0.51010581669546
H        41.26193687866191   -2.54591975670493    0.29862720454151
H        41.27963516552112    2.69128653000798   -0.31007542874698
H        43.20036051608542    4.56338853725950   -0.53587394568522
H        45.81005893145676    4.50608256173266   -0.53554440591568
H        48.42027130375301    4.54500842606572   -0.54290940105851
H        50.32820924160140    2.65875337795827   -0.32644779512726
H        50.31050199338343   -2.58000833888630    0.26864999647902
H        48.38980429773018   -4.45300662979687    0.48868873052370
H        45.77990612659625   -4.39486076804380    0.49489219335700
Zn       61.80329043017947    0.03615811917865   -0.02087635947776
C        59.31026433328919   -3.40432403559233    0.37097356720495
C        58.34536204888690   -2.45914859801602    0.26008644058547
C        59.01930466323672   -1.20051422768325    0.11868353464689
C        58.36486575947325    0.03501800992075   -0.02122677041725
C        59.01853359678450    1.27099314415120   -0.16096306729875
C        58.34383879499180    2.52917793038162   -0.30281167033337
C        59.30817249583860    3.47496871896462   -0.41337496016155
C        60.56740486642247    2.79150976656676   -0.33856053438096
N        60.35992325049529    1.45315575658352   -0.18420248635948
C        61.80227774370724    3.41253101963964   -0.41607789268428
C        63.03756880420556    2.79128853872388   -0.34856123482348
C        64.29643579837226    3.47412679950202   -0.43476945182323
C        65.26128171435472    2.52881014774292   -0.32473214520444
C        64.58722801144836    1.27161933046866   -0.17137541476848
N        63.24579430711418    1.45357018541172   -0.18968137840225
C        65.24137782601370    0.03710424198440   -0.02190592088274
C        64.58781933768833   -1.19763262566914    0.12826600480042
C        65.26275190640045   -2.45433810086942    0.28178295623637
C        64.29857199260688   -3.40019646639340    0.39291520212977
C        63.03922244384034   -2.71820309373319    0.30700917463663
N        63.24652587139119   -1.38040983932175    0.14747670222686
C        61.80434133576225   -3.34022256125651    0.37480546962608
C        60.56908460800168   -2.72000718760004    0.29688605019302
N        60.36079302565676   -1.38177864651159    0.14256783877337
H        59.19474406336849   -4.46417149854086    0.49144921502875
H        57.27995766420946   -2.58515602443645    0.27111051590541
H        57.27836293492047    2.65448342059824   -0.31446805414717
H        59.19201699841674    4.53470785478982   -0.53418802995393
H        61.80186774307295    4.48647285275413   -0.54172214761978
H        64.41211596315077    4.53314204357615   -0.56225227698856
H        66.32668491620279    2.65384294849720   -0.34349047092740
H        66.32826659104957   -2.57863856841679    0.29998488258602
H        64.41497369420119   -4.45905704587767    0.52093819544826
H        61.80460438529156   -4.41413722402634    0.50068005501547
Zn       77.80975272912384    0.04186952439252   -0.02222656731951
C        75.31855682248892   -3.39935428265488    0.37557364377989
C        74.35329091693417   -2.45465885971393    0.26394294439100
C        75.02678426172761   -1.19597432841025    0.12065255827188
C        74.37180234976468    0.03909282797262   -0.02034670564508
C        75.02445597486687    1.27528538938019   -0.16226999909799
C        74.34888081431203    2.53289459252520   -0.30516864037026
C        75.31257522829426    3.47901541339020   -0.41828261224272
C        76.57226132532162    2.79633789085508   -0.34374504084767
N        76.36566618988466    1.45808627767835   -0.18717865168820
C        77.80676954562901    3.41772152556743   -0.42310993002736
C        79.04236188911760    2.79709533442991   -0.35465807403791
C        80.30081484569088    3.48056806938708   -0.44148274183647
C        81.26621408197261    2.53603733521206   -0.32945042267067
C        80.59290919743174    1.27866158705911   -0.17447327596660
N        79.25133377838340    1.45976770306057   -0.19358241371898
C        81.24788589921539    0.04476207549923   -0.02340111568128
C        80.59500706368469   -1.19023439047898    0.12792129912673
C        81.27059172192715   -2.44648008104792    0.28226834755185
C        80.30690815750606   -3.39270990847154    0.39465248851909
C        79.04720740922392   -2.71140510791940    0.30872795557574
N        79.25378192774259   -1.37368642298004    0.14778571666797
C        77.81270763903485   -3.33412537595638    0.37802080492001
C        76.57712291994908   -2.71469159608164    0.30003160506273
N        76.36828100238826   -1.37671792310353    0.14405393573422
H        75.20339358391723   -4.45907394758035    0.49746376633223
H        73.28791772589406   -2.58096350247914    0.27553619454680
H        73.28333525668891    2.65762395587257   -0.31564871899470
H        75.19562437063537    4.53851323854980   -0.54048887977830
H        77.80588253446092    4.49142882101646   -0.55071930964934
H        80.41579563962050    4.53945612777460   -0.57061977955966
H        82.33154668596211    2.66174508973517   -0.34780324044995
H        82.33615936219272   -2.57031129766691    0.29998554975981
H        80.42380673937160   -4.45141616679733    0.52350889326541
H        77.81369241264444   -4.40787631288898    0.50526602560103
Zn       93.81695089881890    0.01281264123340   -0.01862169910468
C        91.30275787703357   -3.41065117358103    0.38734416310541
C        90.34371197541955   -2.45936701898273    0.27826043095846
C        91.02541909024991   -1.20593527660441    0.12769594791637
C        90.37859296568021    0.03264384804930   -0.02039233027254
C        91.03972176291015    1.26361061712685   -0.16814583558423
C        90.37272135473584    2.52471956716799   -0.32038419774124
C        91.34283352373110    3.46473120944884   -0.42947163164218
C        92.59790756027320    2.77484938110908   -0.34337338034667
N        92.38217264236799    1.43813641014749   -0.18579829568654
C        93.83658838822855    3.38933172462538   -0.40971268849251
C        95.06812188516658    2.76158547483770   -0.33177833675644
C        96.33106135797790    3.43835251442185   -0.40502205158315
C        97.29024911109499    2.48733867730288   -0.29433417050229
C        96.60874705813828    1.23268203705339   -0.15375216680370
N        95.26824851451367    1.42212758954788   -0.17813966516846
C        97.25537390092815   -0.00712522899495   -0.01648408804631
C        96.59408407522102   -1.23920081269768    0.11964668761291
C        97.26106127616774   -2.50167285784633    0.26005483319892
C        96.29096082981890   -3.44171518712317    0.36891469349090
C        95.03593337061834   -2.75046572647988    0.29458683034177
N        95.25151815207431   -1.41326754695811    0.14230967346694
C        93.79719898425216   -3.36409257063984    0.37053554732194
C        92.56580839585629   -2.73524501255255    0.30334551143108
N        92.36572049529676   -1.39597984954060    0.14669747982501
H        91.18062848007641   -4.46918578388164    0.51277447791642
H        89.27754194704738   -2.57805644089289    0.29597611702136
H        89.30800178156473    2.65565896052950   -0.33932492618874
H        91.23309936446984    4.52448434916777   -0.55616956644127
H        93.84296964696053    4.46335572784392   -0.53454233145589
H        96.45311901736278    4.49751092829168   -0.52522767522984
H        98.35638335800027    2.60700967076615   -0.30534944193884
H        98.32577903449808   -2.63330851408458    0.27225862184310
H        96.40063524104282   -4.50228593046030    0.48845249872130
H        93.79101851910893   -4.43822715974832    0.49437425215626
