158
 energy: -268.923034974835 gnorm: 0.000514652953 xtb: 6.4.1 (bd6e46d)
C        26.18408970549496    3.43216342342969    0.17416829146842
C        27.14302663079494    2.48660784898770    0.13427031595454
C        26.44641665772501    1.21593029258544    0.04275717749207
C        27.11132059024157   -0.02531529023513   -0.01951692354664
C        26.46050628697703   -1.26734885715981   -0.10515467233742
C        27.06240920400204   -2.55210397462565   -0.17380189362810
C        26.05692597743082   -3.47219969151965   -0.25281171949377
C        24.81953121810033   -2.76901175892150   -0.23455413324507
N        25.11613860848346   -1.44288660020006   -0.14300694071342
C        23.55167929636833   -3.32784526042051   -0.30060207577533
C        22.33368353350129   -2.66231422635838   -0.28882270860713
C        21.05743010585077   -3.35863166074107   -0.36797528868518
C        20.10681184832142   -2.40667197593450   -0.33144959273482
C        20.80953164521705   -1.13694485495857   -0.23017980475456
N        22.14549461044061   -1.32897437172181   -0.20737601600303
C        20.16216866359328    0.09058562705699   -0.16736126993946
C        20.78781911539561    1.32418478530720   -0.07269350335699
C        20.18436228076751    2.61247837770719   -0.00544796391665
C        21.18629760811672    3.53375435875746    0.07577669703435
C        22.42744556816526    2.83279124275932    0.06016947282145
N        22.13440022215239    1.50891425585172   -0.02959571317893
C        23.69574843910129    3.39095806935667    0.12184577731691
C        24.91425568289919    2.72881869520778    0.10616622741034
N        25.11480342364974    1.39124480620261    0.02817543030673
H        26.28884132355762    4.49799128695945    0.24175098596137
H        28.20955945990733    2.59898822273556    0.16262561655327
H        28.11965299072644   -2.73258641747171   -0.16389988338437
H        26.15252659585326   -4.53851739083239   -0.31884712843369
H        24.44653157792942   -0.68268657017564   -0.11135730336911
H        23.51073351450243   -4.40608360149053   -0.37121761754505
H        20.94701471930568   -4.42375080359661   -0.44047334497434
H        19.03941279725895   -2.51258558606920   -0.36723764769954
H        19.08212966134644    0.08383979370260   -0.19499693348966
H        19.12729105079233    2.79450365453955   -0.01846724270867
H        21.08935459726693    4.60023615303846    0.14055800202700
H        22.80180913029780    0.74754495978809   -0.06120457763221
H        23.73835710922061    4.46943545373393    0.18910735800200
C        61.82957976501218   -3.41595239605887    0.38175259341599
C        60.86951986606307   -2.47244179854850    0.32400199554598
C        61.56380024154451   -1.20548013452951    0.17882410956420
C        60.89680410321079    0.03223364384698    0.08048683687319
C        61.54348176714026    1.27160605182388   -0.05944943251456
C        60.93618698884218    2.55147918240453   -0.16331817295244
C        61.93716966849345    3.47183970808342   -0.28492301673882
C        63.17708575693769    2.77358115948757   -0.25847046909681
N        62.88651391504142    1.45013779941263   -0.12033176620825
C        64.44264707341472    3.33282492965457   -0.35676117765316
C        65.66142230149104    2.66887060832662   -0.33843535977636
C        66.93609389545551    3.36277368548680   -0.45459885526097
C        67.88766470828200    2.41257323422516   -0.40072703779877
C        67.18704578402132    1.14637868224138   -0.25143185537233
N        65.85139250448015    1.33867139960164   -0.21790945625019
C        67.83664416909855   -0.07805371080447   -0.15840374435019
C        67.21529256691881   -1.30916634271201   -0.01553498419490
C        67.82391473118864   -2.59285036070538    0.08566940471282
C        66.82646760328656   -3.51395420381513    0.21202740435591
C        65.58297385933201   -2.81748529097350    0.19113306447501
N        65.87014887234660   -1.49639626380784    0.05294827123130
C        64.31703768631849   -3.37555944964471    0.29070580264756
C        63.09769935443459   -2.71505605403969    0.27091723206814
N        62.89514359483370   -1.38087137367932    0.15052487113914
H        61.72664111283717   -4.47891903923759    0.48685638010363
H        59.80357422366131   -2.58407195124829    0.37105449513528
H        59.87848652412336    2.72864444605962   -0.14603892391585
H        61.83679658908184    4.53506921623072   -0.38470658703796
H        63.56061014917840    0.69498259140134   -0.07079749752207
H        64.48086794951399    4.40834310245245   -0.46148295607169
H        67.04482865482746    4.42519798315140   -0.56111439919587
H        68.95449238015759    2.51748557276524   -0.45297164786180
H        68.91624063857429   -0.07079584709887   -0.20075413104463
H        68.88131069836365   -2.77211264019154    0.06344414347376
H        66.92806143874876   -4.57737803843891    0.31095286908225
H        65.19803859750181   -0.74008584148865    0.00560498278828
H        64.27721048457701   -4.45117570386464    0.39509630697575
C        28.50762098896903   -0.02701700682351   -0.00042228605439
C        29.72644724154423   -0.02419317420451    0.01225038104382
C        31.06729622560653   -0.01665355177641    0.02204269877783
C        32.28630611884115   -0.00614713825246    0.02528796257115
C        42.11778806098775   -0.01466346173855    0.00397618892007
C        43.33700731490670    0.00358019584322    0.01152677650522
C        44.67711701644456    0.02248063977576    0.02287678668011
C        45.89625386141913    0.04043934560265    0.03780810546822
C        55.72283287325678    0.01652614545140    0.17030559905137
C        56.94178733242180    0.02438321913963    0.16154170307398
C        58.28235284649541    0.03054050188432    0.14148490117816
C        59.50100959814731    0.03441114437718    0.11904248360014
C        34.67863761049907   -3.41983507940498    0.37623470103368
C        33.69876075948294   -2.49944331434780    0.28403353255615
C        34.36721503155795   -1.21888046155982    0.14757930703235
C        33.68144869070611    0.00657763523422    0.02546064387015
C        34.32622601111376    1.24908155584673   -0.10055921652571
C        33.72839308139064    2.52972755037267   -0.22790635209327
C        34.73904500362310    3.44337921539398   -0.32646245496906
C        35.97360498839189    2.73896013658006   -0.26181321926395
N        35.67169857490121    1.41861956148022   -0.12444888856644
C        37.24083705563385    3.30232178571343   -0.32957949922452
C        38.47093148917567    2.66737833594725   -0.27303171295904
C        39.72562762156904    3.39580518649936   -0.35823833633166
C        40.70542496873161    2.47533287558633   -0.26634313020695
C        40.03687369444511    1.19509730321106   -0.12672759067552
N        38.70155455752894    1.33917067132403   -0.13475683171349
C        40.72319480727030   -0.02977869710403    0.00224466371962
C        40.07830613380652   -1.27184307777388    0.13342526426940
C        40.67616862626993   -2.55192624896211    0.26627327546889
C        39.66552329722169   -3.46576378218234    0.36318076414952
C        38.43086938695946   -2.76204861747964    0.29208724677023
N        38.73291368769807   -1.44174786282165    0.15308009912426
C        37.16363769387303   -3.32567826667360    0.35505794739362
C        35.93336176919857   -2.69096416958131    0.29432622889690
N        35.70283965784095   -1.36291822917442    0.15696919050150
H        34.59724286079970   -4.48392755370724    0.48857612140420
H        32.63466331969607   -2.63466518878535    0.30391105531856
H        32.67176591204894    2.71321719539592   -0.24140234305743
H        34.64761323245481    4.50664919675404   -0.43437699684246
H        36.32506741038957    0.64623646871469   -0.05031063655758
H        37.26805798095103    4.37795526699589   -0.44126550009726
H        39.80713522007324    4.45975852789354   -0.47170596693975
H        41.76948302761674    2.61050514618564   -0.28752374677759
H        41.73284966200519   -2.73486330305765    0.28365119872241
H        39.75687662170263   -4.52875854663743    0.47397768677838
H        38.07972994727130   -0.66964461061077    0.07450502825023
H        37.13609308488208   -4.40126221331486    0.46722168779228
C        48.27392044796331   -3.36642988792562    0.50297906088287
C        47.29822480631947   -2.44638583146462    0.37184597347057
C        47.97220580895272   -1.17002999322319    0.22248235188021
C        47.29076178084615    0.05318804642568    0.05682787627307
C        47.93971610363931    1.29142507637345   -0.08952230109408
C        47.34558489817336    2.56821239851650   -0.26464400904447
C        48.35857460958324    3.47930172607490   -0.36291051341858
C        49.59095747959853    2.77731450161021   -0.24933271315771
N        49.28526841150149    1.46054394748142   -0.08631366665976
C        50.85980466615539    3.33885736140856   -0.29527707738185
C        52.08730330665150    2.70436138430649   -0.19169785268449
C        53.34488608548970    3.42965262968763   -0.25925221115420
C        54.32071025894901    2.50920346715516   -0.13143706665222
C        53.64687981685343    1.23239113017892    0.01362884204857
N        52.31207962625738    1.37872477311932   -0.02417334248569
C        54.32781878374393    0.00788560778049    0.16867497513678
C        53.67903711991015   -1.23029331565943    0.31490100072964
C        54.27344385666905   -2.50821959490128    0.48016138116613
C        53.26046270481716   -3.41897848578284    0.58178995977872
C        52.02792420039879   -2.71555958177395    0.47985493188813
N        52.33325289113250   -1.39839757931997    0.32078599008764
C        50.75890081972448   -3.27657961257743    0.53130115134952
C        49.53153508670560   -2.64153436814930    0.43274005451208
N        49.30669461487174   -1.31595124115929    0.26283533699942
H        48.18787855104848   -4.42795633431780    0.63440294242834
H        46.23372965776974   -2.57966224272280    0.37126545555192
H        46.28962393737552    2.75094890257340   -0.30793006392728
H        48.27013824222036    4.53927161782128   -0.50154623918025
H        49.93729441214692    0.69142050081516    0.02377471233884
H        50.89135830225615    4.41166905878918   -0.43046676348068
H        53.43074518041382    4.49159320543295   -0.38744105696414
H        55.38524426293488    2.64240715441748   -0.13015621737909
H        55.32956590495900   -2.69190054779477    0.51498925320976
H        53.34901202618615   -4.47967231134182    0.71463702064352
H        51.68117550905910   -0.62847093915841    0.21684307557875
H        50.72767965744352   -4.34967991462864    0.66422623746763
