185
 energy: -319.313070787520 gnorm: 0.000407032689 xtb: 6.4.1 (bd6e46d)
Zn       34.06889925670775    0.11425804199997    0.04068139922293
C        36.50417212977776   -3.29481062262105    0.85447038005401
C        37.48272240394360   -2.39726973201063    0.58572711760878
C        36.83044278858865   -1.15032794365938    0.30301051945164
C        37.50289365184673    0.03852240730449   -0.01847396877855
C        36.87271614553227    1.25534316088460   -0.32036289319325
C        37.56901930424500    2.47237131456366   -0.62725638811004
C        36.62206082031300    3.41146700360172   -0.86568363609988
C        35.34994827480486    2.76782006925902   -0.69771606821804
N        35.53413129287073    1.46007794324061   -0.36296804485760
C        34.12659441003112    3.39821684173727   -0.85308255560779
C        32.88265834770822    2.81633635497982   -0.67512527069844
C        31.62850167014373    3.50074029906871   -0.83633420888483
C        30.65567478468775    2.60049217154957   -0.56303746866723
C        31.31473398016497    1.36504497112370   -0.23496639872819
N        32.66152356565247    1.52531128014317   -0.31316833248785
C        30.66276413753770    0.19300885680615    0.11216239916155
C        31.27425626559454   -1.00852124423779    0.43080921662507
C        30.57327897297572   -2.21293016927459    0.78642512787238
C        31.51408395103162   -3.15829424808306    1.01591432714194
C        32.79059781746493   -2.53226508030774    0.80151262462073
N        32.61433420008269   -1.23130520592231    0.45045450773003
C        34.01263346670402   -3.17109092824933    0.92903136704422
C        35.25655934812561   -2.59582776695362    0.72976746967271
N        35.48646507249159   -1.29664215531418    0.38976668023559
H        36.60308907539854   -4.33224370579076    1.10990627141905
H        38.54394833181377   -2.55160211323739    0.56280933081897
H        38.63619675083820    2.58021682283341   -0.63981283880574
H        36.75748156964730    4.44350401166112   -1.12615363465062
H        34.14596540876718    4.44224273075437   -1.13343319745769
H        31.52576175420472    4.53060724973049   -1.12003764306341
H        29.59189858712893    2.74119069677595   -0.57637076761706
H        29.58232503232921    0.21799858799558    0.13610341027801
H        29.50568242051513   -2.30399932424672    0.84642571397272
H        31.37589375985479   -4.18314352168187    1.30284404072607
H        33.99506314221735   -4.21574724070663    1.20715965325963
Zn       77.63390294345533    0.05843097066268    0.00240916599630
C        75.17812847163843    2.54842031117423    2.44714511864502
C        74.20396364948627    1.86933847267070    1.79501690013335
C        74.86328636971874    0.97615676480311    0.88547431408623
C        74.19731823575788    0.10045615334491    0.01423608664303
C        74.83646091557146   -0.78743767952676   -0.86522802342133
C        74.14923125809892   -1.65901694499109   -1.77520897338041
C        75.10184835387345   -2.36046705163023   -2.43538658188064
C        76.36887319080455   -1.91111635121059   -1.93233796213744
N        76.17598811195444   -0.95174848801051   -0.98423603804355
C        77.59554862763298   -2.39242885976108   -2.35848042972816
C        78.83607731522190   -1.96785420028827   -1.91312213962444
C        80.09397309675623   -2.48583804979791   -2.37869886547462
C        81.06212278711695   -1.80910098612279   -1.71820933934039
C        80.39638010005837   -0.87679957597120   -0.84867905078807
N        79.05020141978625   -0.99778950867832   -0.98589105908692
C        81.04244424457208    0.01289570545729   -0.00589271537819
C        80.42412876032428    0.91959603002310    0.83955140052942
C        81.11850823044222    1.83394695438949    1.70569552402029
C        80.17184827179656    2.53688546800505    2.36996105384496
C        78.89835275961906    2.05293862304597    1.91008922897485
N        79.08225785527472    1.07679874991626    0.98273342195620
C        77.67165580825960    2.51188784890404    2.35981439637697
C        76.43037338535497    2.06357375165575    1.93979194049559
N        76.20736756959805    1.10662764802048    0.99594254062494
H        75.07347994002805    3.30313115800708    3.20264608161729
H        73.14091969476117    1.94423905590210    1.91622343185002
H        73.08417189711544   -1.70408397778989   -1.89300167979409
H        74.97335385225009   -3.10852310752736   -3.19379756245204
H        77.58210018091101   -3.16815241230342   -3.11150917058431
H        80.20212017748592   -3.26186127578276   -3.11206134979151
H        82.12681051819881   -1.91636978593450   -1.79937711107422
H        82.12335381695125   -0.00154070127059   -0.00833776853397
H        82.18606825270417    1.91248241460946    1.78205912970800
H        80.30427593559061    3.30994367131520    3.10246283003853
H        77.68270286721754    3.28868390139600    3.11178345591410
C        38.90592176099098    0.00888903920698   -0.03777415219744
C        40.11832132181310   -0.01577780374243   -0.05200661488672
C        49.79577631389372   -0.09570387443179   -0.05969596365692
C        51.00844196213507   -0.08333081444442   -0.05152351524183
C        60.68665394249649    0.04636440272318   -0.03995526887640
C        61.89955595346390    0.06073291004104   -0.04020803275560
C        71.58089816604274    0.11144692701184    0.02852617936208
C        72.79385679975418    0.10904447899106    0.02245629105500
Zn       44.95710577065167   -0.08150779284999   -0.08029393013681
C        42.44474137031046   -2.49557790952285    2.38132808766819
C        41.48663164350121   -1.79897586281741    1.72359562518109
C        42.16713412985060   -0.92697910644911    0.80932194937217
C        41.52115135044347   -0.03971085668272   -0.06518778284028
C        42.18037188242238    0.82535475037001   -0.95191206756633
C        41.51304323722139    1.70626870674497   -1.86728192810207
C        42.48195446042565    2.36985725153686   -2.54312624877815
C        43.73767394716057    1.89022477546881   -2.04112126163564
N        43.52322645154762    0.94970551034663   -1.07878080476143
C        44.97576423387356    2.32639006125641   -2.48082633791077
C        46.20690922085038    1.88047978745850   -2.03179127625509
C        47.47026847381908    2.35279818661164   -2.52157773307201
C        48.42876426653635    1.67395201215322   -1.84602709289729
C        47.74728318139476    0.79028111045240   -0.94366180505626
N        46.40654901160436    0.93112217928703   -1.07485358496648
C        48.39282269784965   -0.09871237807390   -0.07059311778492
C        47.73387008862023   -0.98811938979900    0.79161650508512
C        48.40133168987305   -1.88591453690381    1.69033729655510
C        47.43232229049657   -2.56385934207783    2.35165178861923
C        46.17651931472684   -2.07430365452567    1.85936971250242
N        46.39102942340664   -1.11848321826995    0.91219828668790
C        44.93844365036244   -2.50661712846941    2.30280085999838
C        43.70738861322047   -2.04189508096824    1.87266685433289
N        43.50755380442181   -1.08720850758198    0.92110852309040
H        42.32247627614439   -3.24268618585466    3.14165911659166
H        40.42194653795845   -1.84855268420800    1.84358083009315
H        40.44877675093268    1.78284218100009   -1.97664619725114
H        42.37117755104405    3.11145605620442   -3.31061634968810
H        44.98170368858986    3.08520819895718   -3.25103639031608
H        47.59269556086630    3.10033774950169   -3.28141659758714
H        49.49447467772508    1.74224885202140   -1.94739516403234
H        49.46573616596170   -1.96466098403378    1.79778938851694
H        47.54286576603433   -3.32000208177355    3.10479102202519
H        44.93243888845466   -3.27342375190637    3.06505631947783
Zn       55.84714931832826   -0.01823022445451   -0.03916063942009
C        53.39864505368538   -3.45588344768947    0.58736726126134
C        52.42234025807281   -2.53457921696097    0.40276395089140
C        53.07972895235341   -1.27707921473668    0.18856737421112
C        52.41128722716000   -0.06562809028833   -0.04441737686625
C        53.04751790419007    1.16423414802573   -0.27219490010886
C        52.35642848315681    2.40388780423066   -0.48444281847912
C        53.30755678005179    3.35203994034863   -0.66431893842031
C        54.57601868911486    2.69000158291449   -0.55664972508175
N        54.38676880238484    1.36232989605329   -0.31523076942568
C        55.80227471638682    3.31967923190942   -0.68393464869993
C        57.04518669850905    2.71985656469022   -0.57566618285033
C        58.29518263402319    3.40647370649050   -0.73337134146547
C        59.27154747376436    2.48372650789138   -0.55674558354924
C        58.61464625311854    1.23720893176431   -0.28506385949590
N        57.27052674454885    1.40303212434433   -0.30696348636969
C        59.28395637854754    0.02829416037750   -0.03943275611147
C        58.64710282504169   -1.19775678517630    0.20812167663516
C        59.33722085917622   -2.42532312343501    0.48372298777554
C        58.38596347900381   -3.37346660645236    0.66290608421024
C        57.11797253030743   -2.72141873723164    0.50242087493124
N        57.30786433147343   -1.39972769367502    0.23010123276000
C        55.89182663081858   -3.35486817171751    0.61098843762497
C        54.64880172438817   -2.75961254965833    0.48065853898285
N        54.42378154538270   -1.43818948814854    0.23586317935413
H        53.29642520707617   -4.50746565201669    0.77442316448034
H        51.35923552154503   -2.67768462581078    0.39698372880933
H        51.28985216326461    2.51822528699323   -0.47991824078037
H        53.17699695363825    4.40089891146550   -0.84890137319725
H        55.78780908300505    4.38128035232938   -0.88856993064851
H        58.39733630777222    4.45166998177742   -0.95335914040113
H        60.33447140204512    2.61507899380290   -0.61488543365302
H        60.40324877111079   -2.52782923731054    0.54304691720485
H        58.51623436925214   -4.41473307157693    0.88655699743343
H        55.90650389999653   -4.41601660710486    0.81799902435173
Zn       66.73987915581777    0.08891675961169   -0.00731696957317
C        64.27220410703092   -3.19390132282829   -1.16119054248694
C        63.30137742465318   -2.29159172491758   -0.87952082799589
C        63.96495084978072   -1.09883655163790   -0.43667820201389
C        63.30229627636282    0.07179795162971   -0.03603976148996
C        63.94628724156819    1.25049495610449    0.37093592665276
C        63.26374422764746    2.43837765131178    0.79766866950476
C        64.22081785515147    3.35078400922232    1.09348942374008
C        65.48481804698531    2.71551245014643    0.85346098771997
N        65.28676593385059    1.43883391326460    0.42008783690558
C        66.71504265348926    3.32388781649037    1.03440470282885
C        67.95429415435402    2.74088086452702    0.83184008643930
C        69.20818014251451    3.41406467457277    1.01398210806585
C        70.17903761551905    2.51376162212628    0.72616300522578
C        69.51523396677023    1.29086768371668    0.37608984405196
N        68.17192767799612    1.45425791517378    0.43939045741630
C        70.17780844581658    0.10458770716272    0.02466312869869
C        69.53267903240651   -1.08953882754013   -0.33363223092168
C        70.21363914366489   -2.30897195365062   -0.66252546612319
C        69.25648398690977   -3.21819605171999   -0.96766970602658
C        67.99372670399879   -2.55395558676761   -0.81719493156082
N        68.19242638912958   -1.26431605085074   -0.42442977990602
C        66.76418418080081   -3.14656411214906   -1.04854895645848
C        65.52549046316827   -2.54804354616764   -0.89507790882566
N        65.30775387335882   -1.27413906862095   -0.46292462366767
H        64.16427989059184   -4.19990321169935   -1.51832045641419
H        62.23841468997373   -2.40227195911503   -0.97081535922798
H        62.19828539686308    2.53956453707401    0.86857719191793
H        64.09701615099019    4.35711445520988    1.44451681044718
H        66.70739641951792    4.35304947856282    1.36586675961127
H        69.31648944087058    4.43743951193013    1.31752188223838
H        71.24257442267704    2.65197346632907    0.73271322748154
H        71.27785917042505   -2.44008784709721   -0.64236936198337
H        69.37957837226539   -4.24237931938836   -1.26284715547520
H        66.77225638793176   -4.17577753448852   -1.37986464257525
