154
 energy: -280.759800781284 gnorm: 0.000726401103 xtb: 6.4.1 (bd6e46d)
Cu       21.71153360108006    0.00328589084636   -0.00838075311970
C        24.23951873975953   -3.42185674077460    0.04855767534395
C        25.19145204957065   -2.45865633892764    0.04721249463083
C        24.50175923399912   -1.20076289951481    0.02253739837509
C        25.14791129648465    0.04400210474101    0.00613388332103
C        24.47242501421024    1.27308651419979   -0.00932024813365
C        25.13222046401468    2.54728997939638   -0.01837164949004
C        24.15756845013964    3.48755832206128   -0.01980044421334
C        22.90575762616278    2.78577153870499   -0.01262921073517
N        23.13089965798016    1.44361703479788   -0.00779419342558
C        21.66941263641511    3.40642759283932   -0.00814988651489
C        20.44935912475851    2.75423460000189   -0.00839714307545
C        19.17614440466814    3.42200984076159   -0.00697977805405
C        18.22971062809509    2.45579751876527   -0.01890250731702
C        18.92358593560297    1.19639792891319   -0.02636275046387
N        20.26351000215774    1.40986758511269   -0.01765543626052
C        18.29718389587672   -0.03752315504639   -0.04360042237636
C        18.95317758465637   -1.25606438470730   -0.04408950963473
C        18.28979878705964   -2.53172491603983   -0.05938529088790
C        19.25895883605725   -3.47507582943213   -0.04331841306000
C        20.51561001631348   -2.77699507884197   -0.01928896041443
N        20.29770499582287   -1.43744803988600   -0.02246236093530
C        21.75049602727760   -3.40001069444106    0.00743165519077
C        22.97149189957261   -2.75012858872426    0.02427310047802
N        23.16475945410620   -1.40308622720144    0.01174562279257
H        24.36515813031747   -4.48725854082488    0.06366697397700
H        26.25863333835248   -2.56714640845697    0.06090230082981
H        26.19660579477601    2.68116066445416   -0.02194103910912
H        24.25780081677601    4.55562013599668   -0.02557229997383
H        21.65687338291643    4.48686287336873   -0.00629142958476
H        19.04798054779064    4.48731092509421    0.00151177291622
H        17.16198943462038    2.56196672544999   -0.02196230948934
H        17.21706253072885   -0.05049236419142   -0.05581418245321
H        17.22507896759621   -2.66340380396739   -0.07925872058348
H        19.15641181677806   -4.54320528241518   -0.04731584921777
H        21.76357699547258   -4.48041658748096    0.01370971857908
Cu       62.06542842783521    0.03434789827000   -0.00807605327576
C        59.54529647446040    3.40318243218529    0.64479645763627
C        58.59102111541610    2.45896423591578    0.46675181390209
C        59.27777387505414    1.22248136977261    0.22534313665155
C        58.62878453862880    0.00023352678474   -0.00288089363645
C        59.30128878854367   -1.20984125559608   -0.22688151186855
C        58.63844432130426   -2.46141677870500   -0.45776173482152
C        59.61082702141659   -3.38799759001724   -0.63058694197701
C        60.86437529719589   -2.70040724436657   -0.50561560986356
N        60.64246190077915   -1.38022691296684   -0.26090006203175
C        62.09918058291551   -3.31304995712030   -0.62214787431501
C        63.32079264074773   -2.67328068049264   -0.51129048266130
C        64.59234980098854   -3.33187313921401   -0.63937329925899
C        65.54113822588830   -2.38205165394523   -0.47478865237495
C        64.85038280736843   -1.14200209128577   -0.24534471266226
N        63.50994070219013   -1.35072247102848   -0.27272404090986
C        65.47987016475156    0.07171636336961   -0.03130818580750
C        64.82694508654049    1.27073522975166    0.19492005824320
C        65.49353397770999    2.52475528337955    0.41992233019212
C        64.52661017092572    3.45222441777224    0.60511206215185
C        63.26813338237015    2.76631155443377    0.49219885471139
N        63.48276477796557    1.44951773816161    0.24351257202466
C        62.03454198383014    3.37897088512884    0.62169392413493
C        60.81182526755314    2.74161850763655    0.51068414680041
N        60.61536561037817    1.41895498751551    0.25776120575077
H        59.42219358429269    4.44943729137667    0.84782892793292
H        57.52408644437685    2.56710486666247    0.49378214235802
H        57.57369275096054   -2.59069063518754   -0.48083220112912
H        59.50802477317025   -4.43802157760550   -0.82520534437625
H        62.10910790448458   -4.37580149644863   -0.81698407006435
H        64.71794487301329   -4.38036257609760   -0.82975221463593
H        66.60858471844033   -2.48768693221991   -0.50155153481923
H        66.56003930125917    0.08382195389027   -0.03993888417179
H        66.55867036657015    2.65402413441245    0.43066354028698
H        64.63179042342904    4.50221806781440    0.79954872990619
H        62.02399990208876    4.44038989680034    0.82361796175749
C        26.54506277749517    0.05906836785056    0.00614940758057
C        27.76331026724958    0.06718580333126    0.00113116554281
C        29.10473812698242    0.07307261839481   -0.00155147924696
C        30.32306365565389    0.06844618616591   -0.00346532029406
C        39.99925752102202    0.04506292280032   -0.02075429565452
C        41.21767146352881    0.04174325026462   -0.02051619320072
C        42.55848969698094    0.03691505461483   -0.02007820281395
C        43.77690340479000    0.03290015446496   -0.01870438149248
C        53.45339439470707   -0.01130247779398   -0.01042653296649
C        54.67159394305988   -0.01183458741802   -0.01024098206211
C        56.01321856161626   -0.01207526326275   -0.00709856742302
C        57.23128831212642   -0.01093520590296   -0.00617855728973
Cu       35.16153536455904    0.05703000535956   -0.01527638621266
C        32.66504853991873   -3.36908673744241    0.37825361961794
C        31.70246089274615   -2.42215725237060    0.27273153401351
C        32.37878307016054   -1.16499835958245    0.12845776536876
C        31.71961660980527    0.06610920532252   -0.00806861721294
C        32.38426728300815    1.29369788851268   -0.14799179301615
C        31.71396506838137    2.55417094894928   -0.28964285283557
C        32.68096164621547    3.49591402617481   -0.40144018667033
C        33.93794745068428    2.80803239191603   -0.32685551744230
N        33.72379229925071    1.47290994698193   -0.17282048669383
C        35.16924683418722    3.43319826268101   -0.40344021990121
C        36.39758196421236    2.80132465035282   -0.33439880116332
C        37.65778360449921    3.48236468065686   -0.41675444553044
C        38.62032296231723    2.53557966287319   -0.30899372519226
C        37.94400515467222    1.27905136230065   -0.16113245697795
N        36.60540953696020    1.46523976999354   -0.17980425359482
C        38.60313591697096    0.04856071000125   -0.01894299250727
C        37.93841429749308   -1.17896084287532    0.12365413132738
C        38.60887440258097   -2.43910299361778    0.26859483940192
C        37.64185693095337   -3.38123878013061    0.37711039078107
C        36.38488469262436   -2.69390923395830    0.29797408935033
N        36.59897373566371   -1.35867262217644    0.14452452533804
C        35.15348562222113   -3.31951343380638    0.36978221402453
C        33.92522594542455   -2.68769170282808    0.29878394420919
N        33.71739899171183   -1.35128943420790    0.14722041778588
H        32.55129667277290   -4.42896134751163    0.49874652080830
H        30.63650608158983   -2.54120062942175    0.28849387319008
H        30.64854800083877    2.67881350381515   -0.30071741205454
H        32.57212020945794    4.55629997867098   -0.52302319698148
H        35.17186467999052    4.50674351572180   -0.52747221928121
H        37.77164026412083    4.54196743072644   -0.54021135698301
H        39.68630090168769    2.65455417591996   -0.32544357927086
H        39.67428885507454   -2.56338433693266    0.28304007191437
H        37.75075043614094   -4.44149317883306    0.49926015374540
H        35.15081379681862   -4.39320943229041    0.49247051292542
Cu       48.61468893754425    0.01058050060794   -0.01757173107084
C        46.11011633289131   -3.40763705704753    0.39336455312847
C        45.14979657692534   -2.45910984433424    0.28119709406525
C        45.82912735643200   -1.20469776127346    0.12886552223093
C        45.17302589182745    0.02676959526389   -0.01883740090451
C        45.84077788313390    1.25217436156065   -0.16516993520428
C        45.17336918571587    2.51317526625461   -0.31602280231611
C        46.14262517012398    3.45288514598878   -0.42556908858335
C        47.39795853288553    2.76315362076165   -0.34132703072220
N        47.18064708482584    1.42889426375286   -0.18409152898452
C        48.63084446936391    3.38609553974384   -0.41081230223434
C        49.85764212373485    2.75214601135712   -0.33307522249022
C        51.11947621711904    3.43107922301256   -0.40806160009420
C        52.07980105759239    2.48265849431491   -0.29557831935416
C        51.40058075838279    1.22698582227324   -0.15261129418108
N        50.06229704149994    1.41571342749693   -0.17785367079118
C        52.05655030240929   -0.00562547468263   -0.01550082538375
C        51.38885262092148   -1.23208762227872    0.11906293948208
C        52.05618300945882   -2.49428476327379    0.26126038844064
C        51.08688604631979   -3.43361787493527    0.37301569593179
C        49.83153621260801   -2.74267761492910    0.29844311256296
N        50.04886167778465   -1.40823396720688    0.14298281888183
C        48.59881398913263   -3.36459557508651    0.37830754263035
C        47.37193643162924   -2.72991469621828    0.30851572629628
N        47.16729908454538   -1.39393364789285    0.14903558245236
H        45.99366599869001   -4.46642360646855    0.52115285312995
H        44.08351198904991   -2.57556112529551    0.29746542528579
H        44.10825816213504    2.63963708944543   -0.33298667408739
H        46.03630524951330    4.51297356521109   -0.55130593095713
H        48.63605922470509    4.45944762463964   -0.53638181850411
H        51.23580741054652    4.49051680157102   -0.53066649926655
H        53.14606359091334    2.59983837152322   -0.30732310606707
H        53.12127504578146   -2.62136576884775    0.27267028103314
H        51.19307740781205   -4.49416885501436    0.49501038920123
H        48.59377394886629   -4.43774715916168    0.50560961035152
