76
 energy: -126.503776378717 gnorm: 0.000274539012 xtb: 6.4.1 (bd6e46d)
C         3.35940987383101   -3.01362947994627   -0.32600318926175
C         2.28797083811034   -2.19979250640321   -0.26033247889394
C         2.80984487701509   -0.87083589226505    0.00317014394624
C         1.99009570583389    0.26354728474973    0.15765852563926
C         2.47448011545031    1.56330912334723    0.37649486803404
C         1.71153599404522    2.74628566065923    0.56623524634053
C         2.58803540368950    3.77933100034791    0.73325895165653
C         3.90624260178543    3.24867808869209    0.65601485438729
N         3.78474814678614    1.90920847738618    0.44284603607644
C         5.09049071927939    3.96097592560913    0.77706283647489
C         6.38386062001784    3.45937152633443    0.73998256800567
C         7.55980503765008    4.30514743055340    0.88668246604070
C         8.62392295516250    3.48363795774075    0.82363634946163
C         8.08975129196150    2.14323434105007    0.63818478190435
N         6.74132271130872    2.16736427419572    0.58806896484974
C         8.88819958945034    1.01069395256718    0.53870173941969
C         8.42662968635161   -0.28412328912213    0.35959051331248
C         9.19112661369612   -1.48055365459774    0.24606361405821
C         8.31860653694616   -2.51259172778718    0.06579831924624
C         6.99863733431946   -1.97424105803817    0.06546592362695
N         7.11697518997921   -0.63286646829532    0.24892836898768
C         5.81566747224004   -2.67773545067459   -0.10373781462929
C         4.52395560777555   -2.17201344762712   -0.10902395523182
N         4.15181988664976   -0.88354483035733    0.07901495132950
H         3.39430569264157   -4.07121226492769   -0.50454150938903
H         1.24971763791115   -2.43544096013920   -0.38810783065163
H         0.64018369671922    2.78527503753143    0.58570318421929
H         2.35396463552650    4.81276893246506    0.90000979922958
H         4.54852131620185    1.24933121627555    0.35172076704516
H         4.99081498607514    5.02737510301354    0.92569936653853
H         7.53291820144759    5.37007827771234    1.01763644836211
H         9.66845254273820    3.72069226253682    0.89138891849301
H         9.95744806062590    1.15019279045502    0.60589111513617
H        10.26155003524678   -1.52949221204808    0.29615179392292
H         8.55281544913240   -3.55233506214921   -0.05696181932175
H         6.35569404826325    0.03350727592247    0.29764924968275
H         5.91260197387888   -3.74438736290896   -0.25303961020943
C         0.60053761723915    0.09567632686343    0.09103211475722
C        -0.60379341556822   -0.04478638569077    0.04067969877471
C        -8.31961202851858    2.35390815530145   -1.19361584880043
C        -9.17431993687413    1.33197591946961   -1.00292892578262
C        -8.35703200144459    0.18189817685220   -0.64848447617747
C        -8.88357582660834   -1.07573096815622   -0.38172538461241
C        -8.14562487590507   -2.19862853879709   -0.04071123396672
C        -8.62315170966904   -3.50927298983825    0.24708599260486
C        -7.54273425855558   -4.28658846243802    0.54271009540561
C        -6.37723832775121   -3.47177862214990    0.44302206466621
N        -6.79208939807640   -2.22771589729958    0.08656393289771
C        -5.06841356592858   -3.86442985569322    0.67919049652819
C        -3.92260099350302   -3.08718726721380    0.59412123213460
C        -2.60240988669716   -3.61138570071283    0.90048135550800
C        -1.73922188281051   -2.59467234900685    0.71119029330417
C        -2.54135478639840   -1.46234062969149    0.28437654399438
N        -3.84533885301066   -1.78444785914370    0.23228980295081
C        -1.99444770759793   -0.20261480543082   -0.02679803098433
C        -2.75548028112934    0.91649907568621   -0.40120032422025
C        -2.27680232117758    2.20883940754253   -0.74498585110566
C        -3.36131420349602    2.98702545636598   -1.03053164175196
C        -4.52643073268507    2.18484001200589   -0.87407662801286
N        -4.10867461167733    0.94513145358484   -0.49609106079957
C        -5.83835605182594    2.58957972976431   -1.07266652632073
C        -6.98669886209334    1.81948991423914   -0.95375868209375
N        -7.04866571557720    0.51244204690259   -0.62555038849075
H        -8.52930802507588    3.37037423400484   -1.46710789288868
H       -10.24438387520500    1.31882545630285   -1.08434124314478
H        -9.95623577667019   -1.18829711836593   -0.44466997141302
H        -9.65486149712159   -3.80238361722231    0.22806419757329
H        -7.53865651741449   -5.32637801805413    0.80691944648667
H        -6.20063053036209   -1.41972593760703   -0.06649520789474
H        -4.92578095576020   -4.89644647861447    0.96914468385025
H        -2.40244313131631   -4.61691683467021    1.21749865631616
H        -0.67645631877878   -2.57355614150717    0.85229137746607
H        -1.24201061430186    2.48761893120060   -0.77954609460360
H        -3.36448216069574    4.01808995184683   -1.32628084616913
H        -4.70350274802580    0.14511568658888   -0.31338554428157
H        -5.97850827485358    3.62275479235207   -1.35931663970852
