115
 energy: -206.449633159529 gnorm: 0.000733082643 xtb: 6.4.1 (bd6e46d)
Fe       14.30074689163332   -0.00131183541622   -0.00916527200930
C        16.80555278003983   -3.38685821915828    0.02559974302997
C        17.79580884147386   -2.46380811898920    0.02375566936968
C        17.15257229804174   -1.18571260973497    0.01235594409060
C        17.82616402717266    0.03957297813204    0.00748748468636
C        17.12446608264489    1.24875671877334    0.00074118160686
C        17.73821326737398    2.54121734668618    0.00317095837848
C        16.72698046259294    3.44122429349551   -0.00130420315390
C        15.50324836901420    2.69251442967036   -0.00763412531488
N        15.76749723964010    1.34799303451846   -0.00543520246622
C        14.26055752028513    3.29533487497637   -0.01734806446019
C        13.03371640599620    2.66138993306117   -0.02714485123904
C        11.78933739896099    3.37950931850196   -0.04111936264085
C        10.80323042819998    2.45468399891914   -0.04823908319189
C        11.44817570929384    1.17373989066684   -0.03794202768585
N        12.80572378517929    1.31312454195890   -0.02576133305024
C        10.79238284644755   -0.04130410532284   -0.03844463308645
C        11.47608282682150   -1.24080077467252   -0.02577101771472
C        10.86062530490039   -2.53621640788061   -0.02263577810680
C        11.86762842702644   -3.43813122994571   -0.00819566746453
C        13.09525849936959   -2.69164836573904   -0.00288946714381
N        12.83651110345698   -1.34894511618157   -0.01356443725739
C        14.33623192063049   -3.29740784645361    0.01037284318994
C        15.56493850730786   -2.66642375959797    0.01443415485482
N        15.79824467489572   -1.31614451578403    0.00672499883909
H        16.88784793524692   -4.45663040763613    0.03351773117657
H        18.85827132402932   -2.61132411163823    0.02972958185558
H        18.79711496636238    2.71293140463118    0.00848567158599
H        16.78452387694878    4.51263639380563   -0.00078853333073
H        14.24802594804445    4.37612289946772   -0.01868918347637
H        11.70602234947991    4.44941780715812   -0.04498212107651
H         9.74063985034416    2.60266066084214   -0.05887830350318
H         9.71354229201051   -0.05386561987284   -0.04799780586221
H         9.80168168103380   -2.70850347263584   -0.03050490067156
H        11.80886481702504   -4.50965821957425   -0.00177514315896
H        14.34832953216594   -4.37818095980381    0.01734508489275
Fe       41.55049322250787    0.03082935452848   -0.00680108090637
C        39.05546576121603    3.36630502960494    0.61659813304482
C        38.06250743697548    2.46157647332537    0.44897685637886
C        38.70217812146547    1.20258597166906    0.21723625519144
C        38.02502300452293   -0.00199920753072    0.00401403043690
C        38.72301082138922   -1.19408257145012   -0.21040331176088
C        38.10552085028707   -2.46513176381733   -0.43470491352813
C        39.11403140039215   -3.35214845544444   -0.60403968965520
C        40.33998102443932   -2.61678682631865   -0.48290948718000
N        40.07975029290342   -1.29361185937333   -0.23984781378072
C        41.58084852318072   -3.21038581929049   -0.60793262500241
C        42.80947534552843   -2.58763275805069   -0.50879907806142
C        44.05164774903142   -3.29395250793545   -0.65843538381517
C        45.04048030844023   -2.38598581326838   -0.49850533060452
C        44.39940150722234   -1.12718093501971   -0.25111528807278
N        43.04144683028574   -1.26289277056798   -0.26166845585105
C        45.05891073327498    0.06507122969822   -0.02757061037077
C        44.37883302693413    1.24387155201234    0.20536085704156
C        44.99809378383624    2.51466218032825    0.44723823257990
C        43.99369401537393    3.40248592953187    0.62230462100319
C        42.76384189704555    2.67211673600113    0.48659024591284
N        43.01869312109051    1.35275603946525    0.23326418945164
C        41.52463499587962    3.27078799901828    0.60107806471864
C        40.29405260023018    2.65423152722957    0.48514964987013
N        40.05688341502584    1.32722355727702    0.23919958644745
H        38.97626353778117    4.41832368529281    0.81172123952640
H        37.00048589829181    2.60951857597384    0.47739480793812
H        37.04608402979748   -2.63263577735547   -0.45627858331220
H        39.05328505162763   -4.40643347036548   -0.79446922939608
H        41.59023837283593   -4.27314092221531   -0.80471566456281
H        44.13177717052480   -4.34514958739700   -0.85894202660808
H        46.10258735602042   -2.53209574099168   -0.53932647935613
H        46.13779050379803    0.07580033186066   -0.03447372604560
H        46.05756410624863    2.68164421175380    0.47462046982734
H        44.05553945935289    4.45463944001120    0.82424691322816
H        41.51573087014983    4.33293270339686    0.80113917837027
C        19.22257402644788    0.05454736644588    0.00948861521863
C        20.44021201872331    0.06353993081187    0.00837905543189
C        21.78260177078434    0.06704449940462    0.00730011466394
C        23.00036566369744    0.06532520455281    0.00387417382644
C        32.85058973100692   -0.01722625664616   -0.00343485093287
C        34.06826748212950   -0.02165607461906   -0.00039367622168
C        35.41078769556355   -0.02076839928387    0.00192751063174
C        36.62837823483198   -0.01270680115018    0.00410496800777
Fe       27.92537048179010    0.02337836351882   -0.00715775990688
C        25.42862553838185   -3.34620231296711    0.38736147396991
C        24.43526586457378   -2.43146743913790    0.29042049945676
C        25.07432027788196   -1.16017215136912    0.14010356226444
C        24.39629230426678    0.05510757639385    0.00122152931304
C        25.09525604638403    1.25766173259154   -0.14332725133906
C        24.47855374103271    2.53942016371999   -0.29722307500558
C        25.48788691550421    3.43528575129637   -0.40495720234136
C        26.71282102354841    2.69462800044660   -0.31547564483910
N        26.45141065042933    1.35877854794499   -0.15667469067219
C        27.95397736043071    3.29646271964161   -0.38170376964425
C        29.18459245734778    2.67481442779851   -0.30444193617767
C        30.42245372649217    3.39561662974743   -0.38010866383894
C        31.41576304230482    2.48195115883379   -0.27328630534907
C        30.77661752552719    1.20942790438838   -0.13387833554902
N        29.42246243263706    1.33373266778023   -0.15260607737513
C        31.45447657198781   -0.00706512977393   -0.00587300899336
C        30.75554454663677   -1.21196903719250    0.11747725927085
C        31.37230830143675   -2.49640263784085    0.24830994225042
C        30.36300295181788   -3.39322067750214    0.34787782965457
C        29.13804682674839   -2.65040797868589    0.27748585933176
N        29.39941686526687   -1.31278936340947    0.13407782640268
C        27.89690185157571   -3.25104423112972    0.35364324195043
C        26.66637488179597   -2.62712381308352    0.29598874001717
N        26.42841743583355   -1.28584772061531    0.14577803266936
H        25.35018462813246   -4.40933627417497    0.50918530785533
H        23.37327320385240   -2.58039984893424    0.31542302064827
H        23.41935331784931    2.70738342615314   -0.31784386279852
H        25.42829894405408    4.49874850399855   -0.53324410894497
H        27.96315676243284    4.37013748745446   -0.50646391022370
H        30.50101470084151    4.45906026528104   -0.49955666414979
H        32.47782828731305    2.63221341419807   -0.28675826679198
H        32.43144760681538   -2.66527573291967    0.26058687689836
H        30.42263493913353   -4.45858448815564    0.45908913102475
H        27.88764056803948   -4.32550860583083    0.47139776499808
