374
 energy: -648.217841358162 gnorm: 0.000907416088 xtb: 6.4.1 (bd6e46d)
C        55.35604740716573    3.43051891511525    0.09581493212588
C        56.31398401295777    2.48385849587587    0.05905250249186
C        55.61548655250900    1.21241372848310   -0.00540543168810
C        56.27928147124627   -0.03000318967316   -0.05689883914493
C        55.63015291463203   -1.27414852715132   -0.12315546064627
C        56.23569381788529   -2.55782667055093   -0.18229608684736
C        55.23260730584958   -3.48217454224898   -0.23825580224237
C        53.99325452390927   -2.78277870106988   -0.21385168154049
N        54.28620057241364   -1.45443496788037   -0.14442882983241
C        52.72593474059422   -3.34513254130162   -0.25203839222634
C        51.50792538579062   -2.67997242474274   -0.22662436709632
C        50.23053621589785   -3.37719852548542   -0.26891934195105
C        49.28083555090281   -2.42460684451194   -0.22618614406538
C        49.98534503905228   -1.15357668415396   -0.15868634898837
N        51.32144875205968   -1.34547936357730   -0.16084799415481
C        49.33857047179449    0.07449417465170   -0.10110899632704
C        49.96307382168663    1.31058680215320   -0.03710933023159
C        49.35637574104113    2.59782506137888    0.02284261475964
C        50.35613656936952    3.52363078246387    0.07266167981973
C        51.59916095262007    2.82655210606443    0.04465708193828
N        51.30950269465863    1.50052549699073   -0.02122823970530
C        52.86678668705839    3.38861883931313    0.07822244136023
C        54.08528500964398    2.72692641865936    0.05401971880440
N        54.28404076444495    1.38811162060931   -0.00732265889781
H        55.46233980546194    4.49712587823225    0.14609036185678
H        57.38078107930890    2.59676178496228    0.07208389758929
H        57.29360009445264   -2.73517309612434   -0.18194636616607
H        55.33124329962845   -4.54890337921071   -0.29153730299305
H        53.61267021224732   -0.69786804648634   -0.11242183703788
H        52.68543739690357   -4.42425049036164   -0.30680834476213
H        50.11890389352393   -4.44326312140922   -0.32295829562236
H        48.21296688257887   -2.53089793135905   -0.23730397839606
H        48.25818961559449    0.06619876347734   -0.10707032918825
H        48.29858838559579    2.77596745276895    0.02656365302326
H        50.25673335816479    4.59058421982565    0.12429380094133
H        51.98063818721474    0.74265254131342   -0.05509583081149
H        52.90870640734558    4.46792971587350    0.13007447083078
C       179.33708095950971   -3.39388675335981    0.33922334276652
C       178.38278467181891   -2.44594060681373    0.26276914719255
C       179.08594978255849   -1.18243600737391    0.12978306135291
C       178.42684474758360    0.05898378365968    0.02118801604666
C       179.08165525517038    1.29573030626645   -0.10215344173893
C       178.48304106479671    2.57949150974975   -0.20952507074188
C       179.49107821667079    3.49494919660915   -0.30748864676629
C       180.72664691433465    2.78976427556630   -0.26289537595800
N       180.42651941558231    1.46710191231610   -0.13813392988830
C       181.99658956126672    3.34286223124533   -0.33519473171278
C       183.21165106677401    2.67281043988073   -0.29822568576116
C       184.49156368885841    3.36104591382909   -0.38726605391854
C       185.43734651132917    2.40588388081667   -0.32125626437437
C       184.72803849049430    1.14241186353429   -0.19151504897965
N       183.39292471253680    1.34114146276307   -0.18130785590812
C       185.36962810409486   -0.08575118461120   -0.09267530880883
C       184.73948277836016   -1.31400780023320    0.03523268706336
C       185.33938849095870   -2.60126662981307    0.14318638274673
C       184.33502154871559   -3.51699964693121    0.25190472919965
C       183.09588993848939   -2.81352936484943    0.21264582372749
N       183.39237220798321   -1.49389687015227    0.08162541453779
C       181.82583770814935   -3.36547480195058    0.29167011404028
C       180.61032929324134   -2.69918056036847    0.25089144954713
N       180.41660052205143   -1.36404691855048    0.12584099962151
H       179.22678175256456   -4.45613124672934    0.44379164439443
H       177.31572190799091   -2.55329081198176    0.29048165480907
H       177.42617152316154    2.76299669265367   -0.21005542196748
H       179.39824734272219    4.55932544550736   -0.40226569040972
H       181.09524476350722    0.70782902274944   -0.07934613516947
H       182.04201176513848    4.41874413089728   -0.43315865526250
H       184.60741786710221    4.42346403262738   -0.48587495044164
H       186.50540269599210    2.50594202454221   -0.35313376210386
H       186.44978332057420   -0.08407035194827   -0.11642864922992
H       186.39597987589329   -2.78630184293304    0.13716887153789
H       184.42880796734502   -4.58118140563877    0.35020160881053
H       182.72598988913850   -0.73318301828818    0.02439370080800
H       181.77906949787709   -4.44084645063036    0.39545531846430
C        57.67475679211569   -0.03101463724580   -0.04111769444201
C        58.89508344893084   -0.02314206765385   -0.02527855050990
C        60.23019203843451   -0.01398033512721   -0.01033106628627
C        61.45489126915762    0.00059151535282    0.00357664873967
C        62.78981759867374    0.01121023010076    0.01393496311631
C        64.01045908551606    0.02265215792849    0.01918451388597
C        73.82389997370230   -0.02922154544948    0.03862211337083
C        75.04466295300600   -0.01569494909040    0.04543710349768
C        76.37912843743152   -0.00154640056127    0.04945140895544
C        77.60408608237753    0.01885614294361    0.05348029086636
C        78.93856803593243    0.03113405177110    0.05362951346112
C        80.15937419624188    0.04271836697114    0.05043530273429
C        89.96982201526413   -0.04188012635745   -0.01920315883371
C        91.19060587130301   -0.02644303524048   -0.01721220054582
C        92.52501944087223   -0.00910029432510   -0.01222783237102
C        93.74988410740761    0.01530477817476   -0.00173740151986
C        95.08430423695832    0.03243303291488    0.00190019104517
C        96.30502980091667    0.05100590619011    0.00332867672425
C       106.11444806464306   -0.01271979526389   -0.02312695875923
C       107.33530312250615   -0.01098494218199   -0.02784061398495
C       108.66982387883124   -0.00711157006175   -0.02656120824557
C       109.89489367331686    0.00047072102995   -0.02339505205320
C       111.22940372549753    0.00686951978288   -0.01566803370597
C       112.45024351203757    0.01647663169632   -0.00902180118142
C       122.25581604269286   -0.01193979847247    0.01551619916101
C       123.47647561273099   -0.00080240173536   -0.00231709448695
C       124.81086482694579    0.01264779281454   -0.01326141493393
C       126.03578387873539    0.02703659192514   -0.02975109047290
C       127.37023494390242    0.03532380404509   -0.03722675883419
C       128.59103657388843    0.04369562545608   -0.04102214166678
C       138.39640378286336   -0.03766132068366    0.00323605861214
C       139.61716508937880   -0.02496925893662   -0.00486233067773
C       140.95157919261533   -0.01076493428545   -0.01238242750579
C       142.17655843952272    0.00630765765418   -0.01981621957797
C       143.51094521814071    0.02303246469444   -0.02671274054206
C       144.73170757814475    0.03752170870566   -0.03096674323034
C       154.54231364963704    0.00061736282039    0.02467681395388
C       155.76315214102496    0.00711871065928    0.03307429932943
C       157.09767108175905    0.01562620934014    0.04244248896339
C       158.32274686550394    0.02068041155477    0.05021257229143
C       159.65730065531383    0.02723007266098    0.05789275912497
C       160.87814018451846    0.03603194952001    0.06627628884573
C       170.69574571786086   -0.01936845995858    0.09332893486397
C       171.91637663861565   -0.00365665776269    0.08695259467397
C       173.25123718740309    0.01279273124758    0.07179141486982
C       174.47587130948193    0.03512715947597    0.05957921442479
C       175.81097498581906    0.05076932693838    0.04574316245925
C       177.03139300962684    0.06428243469041    0.03737257655215
C        66.37635198212914   -3.40551628366509    0.34931958185362
C        65.40371686284537   -2.47724035135450    0.26051573577710
C        66.08241116569148   -1.20033652619709    0.13868397201301
C        65.40461390947833    0.03023380007359    0.02155454798879
C        66.05378473496577    1.27126423407541   -0.09667317391801
C        65.45828964219034    2.55350844113117   -0.22039727632730
C        66.47057668351907    3.46614738019210   -0.31110933823378
C        67.70353848461401    2.75948610415035   -0.24442456032784
N        67.39944508875676    1.43881107266194   -0.11468999335015
C        68.97270650003971    3.31931544042330   -0.30238923355503
C        70.19845340082145    2.67679025662140   -0.24050604747528
C        71.45862997259670    3.39695389831883   -0.31258064159282
C        72.43117183070095    2.46910139709800   -0.21897422350772
C        71.75230415556646    1.19273741024235   -0.09162486670285
N        70.41835404303615    1.34605096404928   -0.10789764097129
C        72.43013676813138   -0.03736313340475    0.03230040116157
C        71.78103733858865   -1.27840867984123    0.15108978206271
C        72.37661948482749   -2.56056489879176    0.27573409272714
C        71.36440601581036   -3.47376243294320    0.36086468102529
C        70.13134958738691   -2.76750329494842    0.29044084671796
N        70.43552645636137   -1.44637685686583    0.16407293960739
C        68.86231412349359   -3.32766089217663    0.34267937441997
C        67.63641631816854   -2.68494719188185    0.28070967749644
N        67.41661809917481   -1.35385489398683    0.15356071746674
H        66.28657674066174   -4.46994706462235    0.45109012739147
H        64.33870190770600   -2.60583605713815    0.27289339227703
H        64.40198912880733    2.73899173832664   -0.23673901770832
H        66.38132767716027    4.53000446855119   -0.41473024632752
H        68.05348462689398    0.66726884871213   -0.04092682254430
H        69.00552304370656    4.39522415455405   -0.40892885234306
H        71.54846310115151    4.46088988076817   -0.41933654624632
H        73.49619896681361    2.59763211423170   -0.23164726448613
H        73.43293449719488   -2.74565249844015    0.29582132054084
H        71.45372203657058   -4.53775252458867    0.46307082206674
H        69.78145690716507   -0.67508224773296    0.08813620965987
H        68.82929902237288   -4.40392059427894    0.44557246607946
C        82.51512169730955   -3.38376043078490    0.44994237781249
C        81.54528701106682   -2.45393798579714    0.34791848173590
C        82.22769570379191   -1.18371998832776    0.18370042546601
C        81.55311930556567    0.04598294075617    0.03963235682651
C        82.20503784333114    1.28121528361124   -0.11835844895178
C        81.61211776915499    2.56179364773247   -0.26878173023884
C        82.62611184458073    3.46861546009647   -0.39297280613433
C        83.85749323618953    2.75984734936500   -0.32083691317817
N        83.55080477464138    1.44383296572985   -0.15429992377574
C        85.12790102214862    3.31326203746578   -0.40562950808784
C        86.35172005090233    2.66751296641567   -0.33923953633013
C        87.61381692076846    3.38057863934384   -0.44087205063643
C        88.58365177326064    2.45154210366757   -0.33225118196757
C        87.90118904808094    1.18150599981323   -0.16645188082573
N        86.56773820578019    1.33963138149812   -0.17486883892182
C        88.57605602323846   -0.04754607164363   -0.01752906662657
C        87.92432347595388   -1.28335759720939    0.13619021566012
C        88.51706857403411   -2.56420287840358    0.28513104850513
C        87.50287759597428   -3.47163549310462    0.40290554901540
C        86.27149755903368   -2.76294965377228    0.32892317979658
N        86.57847329579080   -1.44641512647879    0.16689861448934
C        85.00111366571417   -3.31678270322808    0.41037431740050
C        83.77716492183173   -2.67078180154501    0.34706109875082
N        83.56116895702850   -1.34240845584021    0.18732731141113
H        82.42222179813419   -4.44466310339809    0.58133072029394
H        80.48000349652565   -2.57756789285698    0.37646240120345
H        80.55626076237020    2.75024348611438   -0.27891394969638
H        82.53895060241561    4.52978805094306   -0.52257908384490
H        84.20396382537847    0.67293708405104   -0.06772164967264
H        85.16366736640258    4.38598272735249   -0.53969740427715
H        87.70669729511644    4.44106979410674   -0.57553647581609
H        89.64897020522218    2.57550419628805   -0.35783586231010
H        89.57292790526085   -2.75248285639875    0.29825591984282
H        87.58981955839016   -4.53318369990951    0.52957710769002
H        85.92568740220344   -0.67523319400614    0.07989204951941
H        84.96538497244757   -4.38993212984993    0.54101279649739
C        98.66629138422327   -3.36781836164144    0.42731591022214
C        97.69497263745096   -2.44056528515777    0.31662947816382
C        98.37544833729264   -1.16887359986211    0.15548330879493
C        97.69880352360563    0.05887517778168    0.00428352641666
C        98.34842447404021    1.29572199181033   -0.15040333443042
C        97.75274440254387    2.57436628794992   -0.30657317989104
C        98.76480112801576    3.48422331313232   -0.42411134785842
C        99.99781200464872    2.77934568974792   -0.34202717939843
N        99.69388416527305    1.46250876950977   -0.17644322959024
C       101.26721176391722    3.33638068725981   -0.41760620856436
C       102.49233075947134    2.69380267610318   -0.34336669265141
C       103.75338100114102    3.40984027401134   -0.43745734247697
C       104.72470577101893    2.48257470229546   -0.32673268669261
C       104.04420964700930    1.21082184511401   -0.16633132777848
N       102.71042880093208    1.36619591872011   -0.18003833483289
C       104.72065606974586   -0.01730473903931   -0.01848191041130
C       104.07085894250055   -1.25419526371479    0.13583302418336
C       104.66655165443615   -2.53334527677505    0.28782815232184
C       103.65452609747231   -3.44319676074756    0.40535558875332
C       102.42157543631747   -2.73779319561839    0.32741585764164
N       102.72545803260151   -1.42061061028601    0.16448774170307
C       101.15230458566442   -3.29478428660274    0.40420526714628
C        99.92725583932420   -2.65186869300108    0.33249338772030
N        99.70920534943433   -1.32422123737730    0.16928339925357
H        98.57510116697991   -4.42878485633472    0.55934558267959
H        96.62983014844420   -2.56687189241409    0.33738890045133
H        96.69639965480550    2.75949660997275   -0.32460345390449
H        98.67524500145250    4.54495792110222   -0.55565247066297
H       100.34940159748129    0.69430688012944   -0.08449661356156
H       101.30092904366546    4.40916354432740   -0.55173208200898
H       103.84458517265843    4.47085365757724   -0.56917642974144
H       105.78991041673798    2.60881476936751   -0.34666383065023
H       105.72285473738603   -2.71881183120762    0.30339654639621
H       103.74400994056531   -4.50428528859425    0.53398922649324
H       102.07000217830026   -0.65206556932047    0.07489370407811
H       101.11861690670658   -4.36781227284547    0.53626584289498
C       114.82018640417706   -3.39588682004251    0.43957648130708
C       113.84650645036747   -2.47293495341743    0.31442221151060
C       114.52371029178595   -1.19881971495543    0.15852578672241
C       113.84403294135861    0.02622837991583    0.00062052562958
C       114.48968047884846    1.26625951281106   -0.14585460952211
C       113.88867098289083    2.54217714843956   -0.30427286330198
C       114.89677373549945    3.45821540550301   -0.40639507416526
C       116.13259652638658    2.75986323212923   -0.31297855915889
N       115.83430140301715    1.44056514734472   -0.15657596667326
C       117.39982691577137    3.32356708507388   -0.37264791174196
C       118.62674709448544    2.68520102089939   -0.29281083477715
C       119.88589293711766    3.40562880982073   -0.37724907864524
C       120.85954283600648    2.48046049753792   -0.26957444202707
C       120.18224147255422    1.20575014045287   -0.11890319538105
N       118.84812264883456    1.35733560039730   -0.13575268323552
C       120.86209146667400   -0.02081225381317    0.02667242737773
C       120.21669590260532   -1.25953942513130    0.18417687475101
C       120.81764657544041   -2.53501539781711    0.34629263606381
C       119.80943945277016   -3.44895430842522    0.46499795066660
C       118.57358262521841   -2.74996493447719    0.37647339401239
N       118.87200556267680   -1.43215803931954    0.20826044084408
C       117.30624588637016   -3.31242798388859    0.44530319851722
C       116.07930207774939   -2.67506299021631    0.35749109457701
N       115.85783756521791   -1.34879141420395    0.18780735924676
H       114.73178710403803   -4.45688270127641    0.57334166698286
H       112.78167455500517   -2.60349517151848    0.32236226465871
H       112.83159538386545    2.72138332524053   -0.33419182733116
H       114.80271868646051    4.51892844628487   -0.53481070644877
H       116.49400600129857    0.67673871083853   -0.05914369478075
H       117.42997449610415    4.39724716234407   -0.50005179775712
H       119.97436932943134    4.46773818795963   -0.50175719794138
H       121.92439451594299    2.61004173926832   -0.28505874117191
H       121.87475509882725   -2.71527098788571    0.36807819598423
H       119.90346994564815   -4.50874833852807    0.60086146316100
H       118.21240781930393   -0.66812302128616    0.11177589103990
H       117.27602581183393   -4.38492451963480    0.58236138066924
C       130.94034728987330   -3.38213598713474    0.39078134850688
C       129.97239000363666   -2.45281567868395    0.26871047237109
C       130.65744140370944   -1.18236667988562    0.11704844293735
C       129.98481469632034    0.04713680532920   -0.03721318409589
C       130.63752336546187    1.28318459226950   -0.18523068052037
C       130.04447155884935    2.56271635894222   -0.34449242151948
C       131.05830205402040    3.47222772727952   -0.44845862566548
C       132.28977090988386    2.76620825098387   -0.35493069444729
N       131.98324319575201    1.44896510420497   -0.19737530951874
C       133.56053371025277    3.32195450537228   -0.41393901758650
C       134.78341614419816    2.67647477987653   -0.32932636459203
C       136.04689273414397    3.38964072305961   -0.41052555276485
C       137.01490480238473    2.45948844414066   -0.29541503961122
C       136.32991172852562    1.18888072027292   -0.14487534615471
N       134.99672987485212    1.34777092689045   -0.16816720727892
C       137.00260847353249   -0.04105122351145    0.00604694758202
C       136.34988646580254   -1.27644994702689    0.15915319981922
C       136.94289668799581   -2.55555978642800    0.32181920453384
C       135.92901511525335   -3.46424958920025    0.43245692122621
C       134.69755012574490   -2.75820154783799    0.33913686686541
N       135.00412556529298   -1.44170174100070    0.17565398459409
C       133.42672186042611   -3.31360325245936    0.40096195978261
C       132.20385867132464   -2.66872831547829    0.31178510571292
N       131.99057133688166   -1.34060546105838    0.14574310940620
H       130.84534536954925   -4.44298086686076    0.52110397016517
H       128.90679950417197   -2.57691277412944    0.27596675244636
H       128.98852688827637    2.74863775260168   -0.37380414722852
H       130.97094006558891    4.53341352068271   -0.57777289390415
H       132.63798863744245    0.68090031843083   -0.09965686651653
H       133.59755978042301    4.39519171267032   -0.54325930210278
H       136.14184084888808    4.45086028350132   -0.53777524453027
H       138.08049166475905    2.58322315548551   -0.30638943005024
H       137.99885992792363   -2.74172838289790    0.34903124748328
H       136.01637234615765   -4.52490759713493    0.56604533352417
H       134.34932278811456   -0.67375712812506    0.07740269431532
H       133.38969515424540   -4.38630290192688    0.53469950294869
C       147.09916164241167   -3.37732113237986    0.39207027266285
C       146.12615190383733   -2.45280002825872    0.27365775076054
C       146.80431810077400   -1.17873925676614    0.12173600816791
C       146.12543242444681    0.04762404113594   -0.03056972880530
C       146.77294343776322    1.28615649520782   -0.18037125549384
C       146.17547832807719    2.56355291899388   -0.33987917645065
C       147.18631881740993    3.47590666509309   -0.44789512132717
C       148.42034310258936    2.77390656126068   -0.35622632103230
N       148.11818481484823    1.45603622525487   -0.19580265217198
C       149.68878150273565    3.33461650322525   -0.41877816727118
C       150.91511337741360    2.69571414908799   -0.33292796284655
C       152.17476412638328    3.41571540033583   -0.41402165118608
C       153.14785822945566    2.49149609674347   -0.29354093467533
C       152.46980997554576    1.21762605980944   -0.14001670342599
N       151.13571723982398    1.36879861842321   -0.16752899160749
C       153.14852151297043   -0.00821257598623    0.01645612593381
C       152.50067424796728   -1.24681790754136    0.16515216985571
C       153.09816014759338   -2.52385626487011    0.32719696355935
C       152.08737370884964   -3.43652555160994    0.43316067881290
C       150.85343112510671   -2.73504206179858    0.33758724593921
N       151.15544518603230   -1.41721568449473    0.17679740249073
C       149.58501885746722   -3.29617771417186    0.39784100126234
C       148.35884393231603   -2.65737226297373    0.31106845905527
N       148.13831223698455   -1.33014901977330    0.14753317413682
H       147.00990556221745   -4.43881492866870    0.52118543384950
H       145.06123415183833   -2.58240700895871    0.28320574016829
H       145.11888949357544    2.74617648996773   -0.36678045974011
H       147.09539530186692    4.53662265368103   -0.57866063017529
H       148.77410604867242    0.68880938037589   -0.09833637641577
H       149.72061048766034    4.40772459437119   -0.55078607274448
H       152.26398454554857    4.47703560793923   -0.54463807933044
H       154.21279254349352    2.62111449440064   -0.30276678803848
H       154.15471683581023   -2.70608767567764    0.35709994266854
H       152.17830603906873   -4.49708171790426    0.56515400237330
H       150.49945219582096   -0.65028467759507    0.07746038726088
H       149.55321595970327   -4.36923680846373    0.53016710536537
C       163.24370686445548   -3.38385856984391    0.49264922373575
C       162.27092231871805   -2.45890192961026    0.37550943362627
C       162.94945683904621   -1.18494199603558    0.22508586584330
C       162.27192438170837    0.04226679822083    0.07414451723898
C       162.92231408700934    1.28006134530781   -0.06963551322253
C       162.32842911735347    2.55974837970619   -0.22389927810005
C       163.34191605314263    3.46975767783109   -0.32620185957359
C       164.57403020358240    2.76393384324020   -0.23694872271983
N       164.26804562270786    1.44621647344876   -0.08267164921068
C       165.84354639660287    3.32209101938476   -0.29816592257055
C       167.06930740641258    2.68092889460167   -0.22004458135609
C       168.32925997576021    3.40005379185840   -0.30395828266924
C       169.30205887713402    2.47406076315140   -0.19536697754218
C       168.62360955992136    1.20005192448210   -0.04542040638250
N       167.28937054820844    1.35303001737932   -0.06337392349070
C       169.30162860970762   -0.02763462193858    0.09913763019564
C       168.65157613319309   -1.26477873348563    0.24888659300115
C       169.24509403170774   -2.54450112305381    0.40378438343981
C       168.23131153900383   -3.45332003447495    0.51432749762918
C       166.99933556374916   -2.74685568849322    0.42858124088009
N       167.30558331293960   -1.42992457557781    0.26940885228315
C       165.72956680181107   -3.30466296762102    0.49375653122715
C       164.50379047524837   -2.66434361077569    0.41176444004994
N       164.28348980333354   -1.33691806855202    0.25027741949136
H       163.15408558733455   -4.44548295016988    0.62057057614932
H       161.20591724707265   -2.58798513069020    0.38546557114080
H       161.27238735366882    2.74542621550485   -0.25121935315716
H       163.25408993791564    4.53133293958007   -0.45205204219162
H       164.92024999183968    0.67528360762575    0.01178719078426
H       165.87712033435164    4.39585083088673   -0.42445970543388
H       168.41885545280621    4.46203362445714   -0.42880812977829
H       170.36703275799778    2.60260052668247   -0.21043799911928
H       170.30110314490062   -2.73105037478734    0.42622657164831
H       168.31890584093631   -4.51458780882305    0.64298826107838
H       166.65360167686651   -0.65865249325832    0.17607944872334
H       165.69623202852159   -4.37799955104510    0.62380154660368
