222
 energy: -383.823047126343 gnorm: 0.000314128878 xtb: 6.4.1 (bd6e46d)
Zn       42.56500055573802    0.04652915910755    0.00543178131929
C        45.05328078939419   -3.38464402242455    0.50059027081682
C        46.01854756955321   -2.44583371566536    0.35109535701384
C        45.34639783806886   -1.18855162469529    0.18413811208121
C        46.00027256126160    0.03839556541937   -0.00389311095112
C        45.35144128533795    1.26923141071382   -0.18409598186192
C        46.02886533960834    2.52394465854637   -0.34931143317721
C        45.06733044119436    3.46851714507276   -0.48607732272675
C        43.80529912543838    2.78949512823118   -0.40102321045119
N        44.00978289382635    1.45542387424860   -0.21541563389268
C        42.57214810566657    3.41317118542841   -0.49374195602142
C        41.33723201473668    2.79271445537085   -0.40580770231858
C        40.07259396862902    3.46924591883634   -0.50847502256405
C        39.11330202778527    2.52460968560530   -0.37091571666441
C        39.79105620503858    1.27013436268730   -0.18274917473155
N        41.13560103712592    1.46330519778746   -0.20893028281571
C        39.15630615872421    0.05229221242330   -0.00052610486228
C        39.78588396567471   -1.16739683424811    0.18713454240950
C        39.10317909109892   -2.41887171047582    0.37754627153057
C        40.05874800518082   -3.36576493687545    0.52510900238906
C        41.32604793652818   -2.69385761568861    0.42459090667754
N        41.12963137614096   -1.36479702153428    0.22050608270249
C        42.55865814696737   -3.31809280987664    0.51769325161123
C        43.79413006505277   -2.69995825636492    0.41893393624164
N        44.00400161912475   -1.36786200556310    0.22506705875901
H        45.16809257368687   -4.44122219040150    0.64816457194983
H        47.08325192322449   -2.57649574455064    0.33984079354758
H        47.09431943758635    2.64911532599971   -0.34502051002514
H        45.18643047059794    4.52541963706779   -0.62777783739372
H        42.57510653997484    4.48337771044328   -0.64740611291165
H        39.95422980926364    4.52433208719753   -0.66503007684096
H        38.04728749651964    2.64658705120553   -0.39129796816547
H        38.07529865324316    0.05417027721228   -0.00371787446630
H        38.03669146881817   -2.53741925260554    0.39296407692529
H        39.93619400907235   -4.41963615084850    0.68655368392057
H        42.55773273596977   -4.38738123600416    0.67771835428536
Zn       97.05378088169509    0.03549622611642   -0.01367506231683
C        94.55933608427951    2.51506826973053    2.40174566999995
C        93.59584227269805    1.82081317576124    1.74973955426609
C        94.26940287513501    0.92863528859740    0.84955799738824
C        93.61677569600418    0.03888672650186   -0.01784321745291
C        94.26952805374530   -0.85206593086107   -0.88382275907325
C        93.59645024419551   -1.74283542575758   -1.78572857365025
C        94.56020009858769   -2.43891256130091   -2.43539939985215
C        95.81983193294511   -1.96712141140528   -1.93411306887851
N        95.61153807004392   -1.00073967421497   -0.99649423464612
C        97.05406784980315   -2.43482471739129   -2.35370800735230
C        98.28781472669758   -1.98902618926583   -1.91010738541050
C        99.55367163431686   -2.49270997983836   -2.36991425330784
C       100.51114232452748   -1.79847965079593   -1.71201969150464
C        99.83098592788298   -0.86992022214950   -0.84966409435627
N        98.48682563848352   -1.00976674294027   -0.98920805086050
C       100.46318135425176    0.03222704878186   -0.00959824950596
C        99.83079067050447    0.93562447380304    0.82898026857505
C       100.51073294019938    1.86277154478362    1.69303062823035
C        99.55306472641833    2.55886925612489    2.34866054552120
C        98.28731690426714    2.05785925870682    1.88563454945243
N        98.48659852039415    1.07813132491894    0.96531362055974
C        97.05337068747016    2.50618675372349    2.32613424945138
C        95.81926586154192    2.04090502240888    1.90348051305805
N        95.61139916343244    1.07476240684031    0.96550396052626
H        94.44273148190337    3.27352315520297    3.15171441956098
H        92.53149227803837    1.88416800103643    1.86611010077787
H        92.53225665739829   -1.80406888804875   -1.90467028615320
H        94.44399653663503   -3.19709566462959   -3.18571022747531
H        97.05304406829997   -3.21717547816172   -3.09998491750486
H        99.67408606277371   -3.27178844321973   -3.09811381945274
H       101.57738062965605   -1.89150240241018   -1.79056636880168
H       101.54419115225157    0.03113087148621   -0.00827975613486
H       101.57696227910596    1.95365461321117    1.77414091410095
H        99.67321140757444    3.33768098019221    3.07718140689675
H        97.05201450795958    3.28845399734070    3.07249140548137
C        47.40425207944506    0.03468309155602   -0.01149294085102
C        48.61682802442951    0.02989641967022   -0.01809453426822
C        58.30072785122467    0.02072280198242   -0.03281348031305
C        59.51415698426625    0.02561254118809   -0.03069469826942
C        69.20055606353597    0.03630604756920   -0.02933375279839
C        70.41421459547253    0.03563377678098   -0.02630367801236
C        80.10103723187805    0.04854240578913   -0.00840293154642
C        81.31454192335718    0.05114599193203   -0.01284013508500
C        91.00015470789862    0.04136470433391   -0.02129975733825
C        92.21314868464471    0.04058952781806   -0.01937232182313
Zn       53.45824446916902    0.01497807106025   -0.03619244922417
C        50.96429616252766   -2.50088994069095    2.34133031180147
C        49.99982841035050   -1.80478189490432    1.69230752055736
C        50.67333342689223   -0.88972617018992    0.81566278012233
C        50.02039864236808    0.02468071101044   -0.02470129848295
C        50.67297880589432    0.93283844521749   -0.87211651903602
C        49.99871335253118    1.84819479869874   -1.74789912653627
C        50.96274231006124    2.53414178508706   -2.40833023277932
C        52.22222275297027    2.03356646661808   -1.93694878717462
N        52.01501866972136    1.06296488093731   -1.00346699114893
C        53.45700765556938    2.46938627816660   -2.38648467324205
C        54.69175738030015    2.00278479034490   -1.96941330997106
C        55.94968532475014    2.46604922738203   -2.48082675322820
C        56.91424023137569    1.77487736520604   -1.82676542303150
C        56.24287879173040    0.89598349548519   -0.91271778667425
N        54.90103981077760    1.04479137179125   -1.02291869975589
C        56.89801829249220    0.01682829637294   -0.03557646711600
C        56.24343331098169   -0.86644768911236    0.83776593378944
C        56.91518408706892   -1.74940578095727    1.74755465225693
C        55.95117055355966   -2.44681181839573    2.39573609128969
C        54.69301816739091   -1.98174674025425    1.88662947747021
N        54.90165163492618   -1.01797695847155    0.94586732640317
C        53.45861977343474   -2.44913485684541    2.30384295254526
C        52.22337460288805   -2.00582051166346    1.86311139562237
N        52.01544764412110   -1.02939598126985    0.93591826483427
H        50.84851085368975   -3.27300346594695    3.07732122182172
H        48.93483670946812   -1.88108321654366    1.79559226252577
H        48.93342761097796    1.93163757162638   -1.84258055095567
H        50.84641989172395    3.30319126259195   -3.14742697197888
H        53.45683456517685    3.24429469939478   -3.14057715586046
H        56.06481935866442    3.21555909833226   -3.23992061682881
H        57.97785435692887    1.83104573497742   -1.95165242704878
H        57.97869027724631   -1.80461888558255    1.87344587266973
H        56.06677347833904   -3.20123912808610    3.14986469022747
H        53.45913659274301   -3.22867544497074    3.05314358411030
Zn       64.35699148929778    0.03243339711146   -0.02886618879288
C        61.86982581151664   -3.23304152410955    1.12456374189350
C        60.90450144720254   -2.35119548415934    0.76881515457606
C        61.57361059136987   -1.14354508289262    0.37866593503802
C        60.91677467923969    0.02859958177232   -0.02905083326870
C        61.57059370421049    1.20270490875196   -0.43594347301237
C        60.89885485373598    2.40892194915633   -0.82608961880718
C        61.86238309589474    3.29281548759956   -1.18180431008325
C        63.12005176988007    2.62683765472052   -1.00008793894529
N        62.91198786428676    1.36272791574967   -0.53555097423387
C        64.35348990871108    3.19013847892380   -1.27912461777224
C        65.58786518795196    2.59003192683075   -1.09836708936405
C        66.84375968975662    3.20101327857300   -1.42626597557258
C        67.80921152153603    2.31427566290271   -1.08322993853556
C        67.14083590940589    1.16784291802667   -0.53820617951623
N        65.79907850375947    1.35110380190462   -0.57128526565336
C        67.79800415770778    0.03553678429002   -0.03000472500573
C        67.14320268848009   -1.09820228388463    0.47815269350131
C        67.81430966577500   -2.24383391899934    1.02162052985350
C        66.85094199682322   -3.13283075154744    1.36450402781390
C        65.59362103418860   -2.52384953437281    1.03843458998487
N        65.80192382244499   -1.28407127117460    0.51222626787341
C        64.36050390245994   -3.12606106265468    1.22018511193879
C        63.12601066631463   -2.56445289165340    0.94262823149725
N        62.91532178087114   -1.30062498592317    0.47843479335730
H        61.75620398251398   -4.24120737367530    1.47371628140984
H        59.84186310330665   -2.49425704427127    0.75247111311088
H        59.83583946524549    2.54968136997793   -0.80993028684798
H        61.74659978076126    4.30075999561536   -1.53092194083458
H        64.35271911556731    4.19541027385300   -1.67737092384915
H        66.95711002408243    4.17448841653014   -1.86298059614423
H        68.87150134534343    2.40651348897569   -1.19642348259476
H        68.87683795217340   -2.33392451324715    1.13391957716551
H        66.96656599921394   -4.10663672482604    1.79987460144446
H        64.36162714233173   -4.13166383871687    1.61755902034494
Zn       75.25772519596617    0.04229654656142   -0.01054064965948
C        72.77251336831780   -3.42174059118044    0.05069323059689
C        71.80676381620393   -2.47364093124097   -0.01634005907584
C        72.47431610874582   -1.20386880017406   -0.00341043535494
C        71.81675180988148    0.03692155326195   -0.02185289753341
C        72.47120346242485    1.27944208313052   -0.03487604818551
C        71.79939280434290    2.54700268818783   -0.02482496636937
C        72.76253226592193    3.49832974926952   -0.08275872925679
C        74.02033804037426    2.80941673056159   -0.11888016252093
N        73.81257562939072    1.46311452337101   -0.07711696024773
C        75.25336162053080    3.43302600006971   -0.20324600120108
C        76.48831077581171    2.80762109669769   -0.21742498133710
C        77.74431332371503    3.49139955720139   -0.33168383290409
C        78.70999665875719    2.54206522243372   -0.28372411795339
C        78.04136494402475    1.28191632092001   -0.13112490801611
N        76.69957799649953    1.46579950841181   -0.10796570630162
C        78.69844301066699    0.04717368689357   -0.00647349734479
C        78.04436279765184   -1.18891571455346    0.12006715726383
C        78.71605988513772   -2.44670098755228    0.27854605099596
C        77.75279558452891   -3.39845983764625    0.32759933836046
C        76.49523330765359   -2.71860785751444    0.20711375177117
N        76.70306615365131   -1.37651619429100    0.09416665976663
C        75.26234762880453   -3.34799626377910    0.18841293850887
C        74.02782248393972   -2.72865836244814    0.09463938915452
N        73.81598926108087   -1.38320114785462    0.04877011248504
H        72.65968123040365   -4.48864472040539    0.06540775250810
H        70.74482316338575   -2.60573459498746   -0.08409761462257
H        70.73653056573858    2.67527606864473    0.03513213890637
H        72.64640208581127    4.56488274557741   -0.09635429936168
H        75.25163373770121    4.51257683654126   -0.26423028849132
H        77.85758831868287    4.55306831618891   -0.43774638033985
H        79.77261032756527    2.66561623479131   -0.35778094554234
H        79.77884021912709   -2.56695451766104    0.35617117240031
H        77.86864116316308   -4.45940621056055    0.43803859164371
H        75.26383514942449   -4.42739614891447    0.25211577520017
Zn       86.15751173815204    0.04678840596271   -0.01932666032528
C        83.66179624852602   -3.22319570060024   -1.14306893070792
C        82.69854782158376   -2.31128053448581   -0.86643384585153
C        83.37093064191255   -1.12314073087050   -0.42515467449056
C        82.71719832175998    0.05013788256274   -0.01559606883082
C        83.37409295269603    1.22246497603201    0.39171741191599
C        82.70489839758632    2.41205876466129    0.83384383133050
C        83.67039971264109    3.32217926634251    1.10845629368875
C        84.92694432009080    2.68323412623922    0.84164670969774
N        84.71596800364982    1.40579798444874    0.41624048627128
C        86.16188566998564    3.29132604620721    0.98796690119943
C        87.39556787154888    2.70411866761587    0.76469942208356
C        88.65430476170992    3.37689027200405    0.91147854521447
C        89.61751763209278    2.46793086688602    0.62501182104620
C        88.94414586724854    1.24051107336544    0.31051810457772
N        87.60255483927631    1.41024825258945    0.39089465518796
C        89.59696346803692    0.04306324241459   -0.02145595938835
C        88.94125519162989   -1.15280012578229   -0.35331131874165
C        89.61150651624612   -2.38175101799700   -0.66847411292218
C        88.64593566687081   -3.28851227704157   -0.95400190907965
C        87.38884993617829   -2.61296208714616   -0.80556195484992
N        87.59918479886565   -1.31958042917603   -0.43195978883663
C        86.15353566573846   -3.19746149524162   -1.02694417567210
C        84.92010236210341   -2.58680421954502   -0.87848763790042
N        84.71243763636956   -1.30903667741332   -0.45233854319616
H        83.54553118363769   -4.22967650766971   -1.49623183304847
H        81.63524442328948   -2.41279285578376   -0.96147570510931
H        81.64199120127185    2.51585707534159    0.93066611650287
H        83.55676610849120    4.32897238510525    1.46155006020517
H        86.16309612599180    4.32390924396795    1.30875588043174
H        88.77078972585359    4.40583235922953    1.19242930105951
H        90.68139312534406    2.60309454753294    0.60997350928273
H        90.67511527817280   -2.51920184725740   -0.65496309324299
H        88.75983230749571   -4.31769852512728   -1.23517445358996
H        86.15202559407392   -4.23014306897106   -1.34745002213594
