185
 energy: -335.915884145543 gnorm: 0.000345486501 xtb: 6.4.1 (bd6e46d)
Cu       34.03423002049375    0.03524004893017    0.00047072779870
C        36.53385376446477   -2.35668029471822    2.47783532144785
C        37.49384054729190   -1.68242615921509    1.80158502234698
C        36.81681369468279   -0.82337683151179    0.87291169549383
C        37.47368700086265    0.03091879427073   -0.02368803965486
C        36.80649025633912    0.88744350887685   -0.91037896163466
C        37.47272783598637    1.74622994221357   -1.84701787255584
C        36.50519983233890    2.42424256758307   -2.50856487398181
C        35.24960932670147    1.97338683788337   -1.97974345332017
N        35.46595357851277    1.03756296203209   -1.01605371355882
C        34.01863698273112    2.44023662245845   -2.40488874701259
C        32.79353962421938    2.00594412034558   -1.93164156502410
C        31.52624748954200    2.50266247746916   -2.39451024927868
C        30.57160254007739    1.82749683651073   -1.71466657969864
C        31.25451826462031    0.91730109164557   -0.83568103776855
N        32.59618720371030    1.05161244224404   -0.98714564220930
C        30.61764008203412    0.03816413776345    0.02256689965416
C        31.26429255341937   -0.84097538752035    0.87344375901427
C        30.59135079512284   -1.74752198887331    1.76380821698829
C        31.55362926221215   -2.42229912076619    2.43319562195600
C        32.81560302684477   -1.92954292133552    1.95201553844919
N        32.60759001223781   -0.97736103002296    1.00757417369906
C        34.04602687119591   -2.36583058778563    2.40932736287714
C        35.27219256756476   -1.90340474897441    1.96588592718509
N        35.47749863140319   -0.96979481659961    0.99756762775373
H        36.65010590577721   -3.08937942716218    3.25284287184938
H        38.55878330938019   -1.73578825687469    1.91613671250979
H        38.53614048776179    1.79698990968430   -1.97605868107474
H        36.61250853433751    3.15797669981569   -3.28386585764362
H        34.01503200559031    3.20106522334058   -3.17211653684453
H        31.40731890180276    3.26516118218900   -3.14004621056462
H        29.50488495429515    1.91905471901448   -1.78572905840892
H        29.53740707628588    0.03879183506854    0.02943937656008
H        29.52551252434278   -1.83679770488532    1.84939145661970
H        31.44306766851151   -3.18198880361199    3.18289140737754
H        34.05105918031585   -3.12482960701490    3.17836230340838
Cu       77.66468696973334    0.03832350828918   -0.01220023382639
C        75.19348401388400    2.58484004489256    2.33770083632740
C        74.22571740388598    1.87535903981485    1.71031493885418
C        74.89252256847375    0.95706826395649    0.83226964952836
C        74.22580970658220    0.05075414532184   -0.00361915596766
C        74.88241799754309   -0.85880938225195   -0.84421233388605
C        74.20477048132912   -1.76946119686517   -1.72191535085396
C        75.16426090193302   -2.48457580538330   -2.35552749925068
C        76.42614277031896   -2.00535723140476   -1.86834573762873
N        76.22154042301794   -1.01611760822826   -0.95679729474452
C        77.65195403214287   -2.49630060901605   -2.28108659267663
C        78.88240721001898   -2.03895806778742   -1.84489267927423
C        80.14420277131795   -2.56364468454417   -2.29152644327246
C        81.10662983325221   -1.85563416957197   -1.65757481908733
C        80.43395373735099   -0.89723151337729   -0.82309288084512
N        79.09063329541398   -1.03519343756808   -0.95548402642633
C        81.08084734269937    0.02438830892888   -0.01856706790489
C        80.44439034013163    0.95074632140419    0.78880704652095
C        81.12807937606119    1.90230023990892    1.62227052393388
C        80.17389375788039    2.61824424494289    2.25968586172905
C        78.90608563376855    2.10551013234710    1.81606273266375
N        79.10277991977858    1.10044623313615    0.92547888079241
C        77.68106607481427    2.57479755346859    2.25488274496950
C        76.44956919168638    2.09428508374093    1.84667363196509
N        76.23333103870698    1.10465775593481    0.93829377451425
H        75.08598823184303    3.36454894282342    3.06674188554609
H        73.16169591014601    1.94179906404587    1.82711446086358
H        73.13984406871830   -1.82714950238478   -1.83468738815255
H        75.04750268735850   -3.26110528638681   -3.08650152825710
H        77.64656464164347   -3.29807900892161   -3.00539098526194
H        80.25452048016443   -3.36577482184402   -2.99568717121927
H        82.17239987135025   -1.95442808135975   -1.73301079655866
H        82.16108374692192    0.02021027232313   -0.02072218720531
H        82.19491935114290    1.99116800973293    1.69485292230577
H        80.29351220685128    3.41822115679911    2.96475026814024
H        77.68514075122283    3.37757765738461    2.97809355023174
C        38.87593533401945    0.02934227602478   -0.03245056904247
C        40.08899955839993    0.02710509181025   -0.04061442692680
C        49.78622728461890    0.01224423147769   -0.01987290293546
C        50.99978909875584    0.01418145104283   -0.01463310953525
C        60.69877902172715    0.03672106657038   -0.02419615166298
C        61.91242000950986    0.03907944574199   -0.02695537030896
C        71.61048663351757    0.05316028779526    0.00116912485380
C        72.82349632656317    0.05341645243501   -0.00019220412371
Cu       44.93746169098925    0.01767555119106   -0.03604252493488
C        42.44428919429332   -3.24026048245224    1.08885602068947
C        41.48069051740808   -2.35494028113741    0.74008390040544
C        42.15196939343699   -1.14594994612985    0.35771466920103
C        41.49072800074946    0.02389285505887   -0.04297059166278
C        42.15729681656168    1.19045294215201   -0.44408102565078
C        41.49190211148549    2.40067007054693   -0.83265803444728
C        42.46010416039304    3.28202297189067   -1.17878170896230
C        43.71453566861929    2.61052970827191   -0.99369198734257
N        43.49740280943441    1.34678853833319   -0.53866495062586
C        44.94544356432181    3.18011101740256   -1.26462371719576
C        46.17310094625223    2.57082503498935   -1.07835975014371
C        47.43046947130835    3.18398798976543   -1.39687335335860
C        48.39411359144373    2.29538624237778   -1.05648397729884
C        47.72328539167417    1.14527135609193   -0.52247757354508
N        46.38412827994313    1.33089594954762   -0.55905098231838
C        48.38511271323743    0.01308747029988   -0.02473963606407
C        47.71740956735151   -1.11792773046586    0.46749563576875
C        48.38174075885573   -2.27065080854323    1.00391993935251
C        47.41356298092283   -3.15701225775914    1.33716345045777
C        46.15987963594412   -2.53988084589121    1.01177901726810
N        46.37755188519177   -1.29997993444281    0.49529933673195
C        44.92933520075866   -3.14587858085459    1.18954443343558
C        43.70179339059816   -2.57235512310969    0.91182915436597
N        43.49105825300756   -1.30703802093926    0.45800805503033
H        42.33277511440288   -4.25098455612505    1.43087809870385
H        40.41719130307756   -2.49197142568163    0.72291063331340
H        40.42874441277062    2.54093021185664   -0.82200810830209
H        42.35362348254107    4.29220866569420   -1.52399648966142
H        44.94829891148424    4.18748819204320   -1.65591935816397
H        47.54192471011248    4.16070121544844   -1.82648582941021
H        49.45742855796782    2.38512141565607   -1.16207107166722
H        49.44417234483641   -2.36369160630655    1.11545396108102
H        47.51962978382461   -4.13460838689061    1.76613663684074
H        44.92681001974510   -4.15364125309480    1.57982598065729
Cu       55.84908141714441    0.02476143921743   -0.01694245823556
C        53.37325268129809   -3.43332903961081   -0.04944584028778
C        52.40478964110567   -2.48729052863251   -0.08404826954709
C        53.06873246961175   -1.21668919055907   -0.03396564570125
C        52.40085722819861    0.01653254837597   -0.01332050056658
C        53.06338546053487    1.25275297049324    0.00742832277516
C        52.39350955420471    2.52017153146930    0.05979876587717
C        53.35735067689176    3.47084397915636    0.02282139353053
C        54.61387011697614    2.78163409285721   -0.04333010963090
N        54.40233766434024    1.43735266002491   -0.03945766034064
C        55.84097019673962    3.41459101832095   -0.12346474344889
C        57.07114829460268    2.78378371280312   -0.16466046577612
C        58.32401855511951    3.47339929871663   -0.27808750842576
C        59.29237435731009    2.52684346778238   -0.25728893106011
C        58.62911295273162    1.26220162961727   -0.12182818152490
N        57.28935239039802    1.44308092500243   -0.08320660434322
C        59.29768901311527    0.03304071268407   -0.02224210914500
C        58.63519970430663   -1.19921194969795    0.07977831588981
C        59.30478841182467   -2.46074792833149    0.21317546073639
C        58.34087831619581   -3.41178971809532    0.23679324476931
C        57.08441246291510   -2.72804238017977    0.12722419728655
N        57.29611315394233   -1.38632762767171    0.04521016156818
C        55.85719157315236   -3.36487456293417    0.08934614198964
C        54.62668204359566   -2.73806900127095    0.01295665533505
N        54.40866506526984   -1.39490358035804    0.00969276867757
H        53.26738209873702   -4.50076059217462   -0.06779981760999
H        51.34237938238358   -2.61638191643257   -0.15066502801813
H        51.33071769491758    2.64417170719962    0.12996082711840
H        53.24652945666774    4.53776710575303    0.04170904437065
H        55.83833606988635    4.49474417702115   -0.15768835421730
H        58.42963101773896    4.53743676879159   -0.36537456090253
H        60.35422358600107    2.65119252946498   -0.33917362604329
H        60.36747688333107   -2.58011642556620    0.29186521862406
H        58.45161393344375   -4.47533787359606    0.32371882513201
H        55.86005792752537   -4.44504072426847    0.12300216099675
Cu       66.76190475183412    0.04714976540299   -0.01353508576150
C        64.28545969732897   -3.22648490485888   -1.12866428321323
C        63.31742440136911   -2.31600326853752   -0.86809941433445
C        63.98174423382108   -1.12391139911234   -0.42590318188869
C        63.31357529573576    0.04270831383029   -0.02548978512165
C        63.97570341155053    1.21171281010716    0.37788315220815
C        63.30556144746698    2.40230503465844    0.81516600413038
C        64.26957899985517    3.31498509255324    1.08279012907069
C        65.52673156567064    2.67652760027761    0.81750596347463
N        65.31503290580157    1.39869684778234    0.40045984397973
C        66.75464367376553    3.29760046755714    0.95718014930694
C        67.98561123098514    2.70702146504148    0.73611433956523
C        69.24043277008343    3.38995733466333    0.87043181504747
C        70.20850881875218    2.48285735838680    0.59846366771141
C        69.54250944720005    1.24619165676867    0.30574825661156
N        68.20234246266480    1.41078807888649    0.38413690646287
C        70.20871273651015    0.05135276163913   -0.00122930507810
C        69.54759370265751   -1.14549248705078   -0.31181785724730
C        70.21861685371124   -2.38058935429062   -0.59961319551283
C        69.25467506353745   -3.29016915255383   -0.87791556608755
C        67.99733228240700   -2.61020696405671   -0.75294408678840
N        68.20843181208585   -1.31341617616028   -0.39951523725149
C        66.76948625144166   -3.20377921846893   -0.98315668504952
C        65.53916353664559   -2.58529261469189   -0.85384105082322
N        65.32155075803786   -1.30769239443028   -0.43902696549764
H        64.17936290813705   -4.23552481870240   -1.47731527246206
H        62.25511371754668   -2.41736822252141   -0.97277550950491
H        62.24231356096485    2.50159801030396    0.91164019734707
H        64.15856623222685    4.32374035558384    1.43071138752789
H        66.75193810286507    4.33310195524576    1.26646225653978
H        69.34719358159876    4.42445246903762    1.13390758654825
H        71.27196640639427    2.62048289719165    0.57971104242141
H        71.28216914211760   -2.51598464490540   -0.57289291730702
H        69.36586293303792   -4.32440450292394   -1.14054729809901
H        66.77159783075949   -4.23956065405725   -1.29150690055167
