78
 energy: -130.728887815828 gnorm: 0.000355042743 xtb: 6.4.1 (bd6e46d)
C        10.50592831400519    3.42223044460268    0.32434805588370
C        11.46110456503500    2.47501647052902    0.24936697491390
C        10.75985809596589    1.21219999511417    0.10079664931716
C        11.42127422484188   -0.02744520615620   -0.00768732542291
C        10.77131529785291   -1.26699510872807   -0.12583864108866
C        11.37676875012686   -2.54904311616616   -0.21504976390505
C        10.37434854049383   -3.47064740049119   -0.31241180990925
C         9.13529727792475   -2.77084493039204   -0.28824080768703
N         9.42768556550402   -1.44574985048456   -0.17190607571681
C         7.86807711424398   -3.32777751307409   -0.37749275372026
C         6.65281740306195   -2.65724701554203   -0.37223087284802
C         5.37471573316750   -3.34426384337634   -0.49042504552698
C         4.42904471923725   -2.38739688404342   -0.45423380110965
C         5.13657006240896   -1.12425888539171   -0.31118851103578
N         6.47055012320252   -1.32461160614827   -0.26650300692732
C         4.49316922639638    0.10429560539091   -0.23049193596068
C         5.11777354979764    1.33366363706992   -0.08733513285120
C         4.51080538205234    2.61877562504774    0.00722518984243
C         5.50853276200790    3.53832802110886    0.14187004164261
C         6.75077525626924    2.83959645442053    0.13146898804523
N         6.46252490041515    1.51881010144632   -0.00827515514423
C         8.01753535428978    3.39393773213057    0.23939324789195
C         9.23395505738346    2.72809283594146    0.21626034539485
N         9.42912138164552    1.39382967092827    0.08564413245179
H        10.61443331858275    4.48369695389530    0.43874571527469
H        12.52782712636788    2.58168834430277    0.28967611090282
H        12.43448465349868   -2.72673887175087   -0.20334365585052
H        10.47312815080344   -4.53552585056738   -0.39474676815026
H         8.75172813697276   -0.69212761762694   -0.12756004322201
H         7.82557212252713   -4.40441705658431   -0.46753363465559
H         5.26012907545382   -4.40700112128080   -0.58749172846171
H         3.36204804209167   -2.48616587401019   -0.51427649013822
H         3.41386639259948    0.10200352956189   -0.28082590579745
H         3.45394448598011    2.79976239543776   -0.02453213755850
H         5.40823678510975    4.60207153278698    0.23868342065296
H         7.13650993410354    0.76402639430156   -0.04975548186319
H         8.06089959708924    4.46889923899024    0.34828876589233
C        12.81795941489166   -0.03013600035061    0.00046466865926
C        14.03644792035526   -0.02347130522585   -0.00681103486580
C        15.37760643993033   -0.01494993909018   -0.00824690778959
C        16.59607291226229   -0.00453188524421   -0.01352304029375
C        24.01541174274955    3.37303218303047    0.40472858255386
C        24.96821155468045    2.42263637983505    0.39391889765870
C        24.27012916729062    1.15088700613828    0.28492503288246
C        24.92247264322008   -0.07469427641244    0.23765678441432
C        24.30663659444384   -1.31176470805105    0.12642929806654
C        24.92255256098980   -2.59464861709555    0.06575465819139
C        23.93131821086025   -3.52419204900922   -0.04627996739427
C        22.68427478318485   -2.83403329169284   -0.05537562681564
N        22.96327588730762   -1.50813832068905    0.05073247813504
C        21.42162879567438   -3.39996613118674   -0.15076398005938
C        20.20033469366088   -2.74268700993552   -0.14786256996180
C        18.93369558641906   -3.44875956924352   -0.24028161413670
C        17.97147732992790   -2.50683560945137   -0.19356255374221
C        18.66315100958810   -1.23546165555153   -0.07713739782747
N        19.99515716415041   -1.40688211786854   -0.05374707051814
C        17.99272415818973    0.00169562853658   -0.00167046349567
C        18.63377615153503    1.24830729817052    0.08817821193350
C        18.01936714783943    2.52788916654393    0.14579752441766
C        19.01527143733503    3.45842682500837    0.22295438184778
C        20.25915432776000    2.76685862763883    0.21712146943599
N        19.97606643015292    1.43736818273884    0.13215492037492
C        21.52227206437747    3.33496612735468    0.29336289917401
C        22.74246851696437    2.67359496398577    0.30511755837825
N        22.93472149749102    1.34004335035796    0.23468111356842
H        24.12214288673997    4.43882011255469    0.47297061769020
H        26.03443830113749    2.53100765432774    0.45091498361028
H        26.00166113147860   -0.06333018303160    0.28890877767394
H        25.98059026243304   -2.76744497068587    0.10335410219122
H        24.03908135490025   -4.58933492999042   -0.11577428309055
H        22.28447857657976   -0.75681543230614    0.07181621673864
H        21.38627564630977   -4.47772792984651   -0.23127917357544
H        18.83306035163845   -4.51371619118951   -0.32579353648566
H        16.90565482363350   -2.62240674462785   -0.23348142112250
H        16.96047326786816    2.69788907396383    0.12804149504257
H        18.90903642864443    4.52424597102092    0.28001112441048
H        20.65706622248683    0.68739309831177    0.10707013953718
H        21.55677921319903    4.41380039866881    0.35666012158162
