148
 energy: -254.802442638681 gnorm: 0.000489320947 xtb: 6.4.1 (bd6e46d)
Zn       25.54881685803277    0.06441048119968    0.03228783446132
C        27.98184252849638   -3.43400090391027    0.24539443921890
C        28.96173847242755   -2.50277305761844    0.15582893308640
C        28.31113349746817   -1.22483010696275    0.09985758259386
C        28.98517003601102    0.00326626412552    0.01535308288832
C        28.35378661349905    1.25496488794764   -0.05428792517922
C        29.04913259067335    2.50945520672546   -0.10723604365473
C        28.10214064453814    3.47559513763596   -0.17922592926487
C        26.83056905634728    2.80987665590603   -0.16381859399372
N        27.01517175903201    1.46238514417046   -0.08137273376982
C        25.60750313101028    3.45656382298583   -0.22654419244634
C        24.36294674544770    2.85010296613166   -0.19647317586715
C        23.10920448897109    3.55072718487767   -0.26462058643207
C        22.13522279217852    2.61371775604602   -0.19447649101100
C        22.79321500432596    1.33984702194322   -0.08194439706486
N        24.14054941000785    1.51386167273745   -0.08912484777316
C        22.13970342907876    0.12316119861843    0.02697412150307
C        22.75069192286954   -1.11482266260304    0.14202442755364
C        22.04887734498771   -2.36471632281816    0.25916323597710
C        22.98977397098286   -3.33398594976231    0.34109803228549
C        24.26718009565566   -2.67731164469390    0.27324035430876
N        24.09127803013338   -1.33496271778715    0.15619108692188
C        25.48983383955230   -3.32645416636462    0.30828207353775
C        26.73460311694152   -2.72350735392698    0.23605699439824
N        26.96621223927039   -1.38417384508955    0.14246236768387
H        28.07931388179014   -4.50072022792972    0.30769280180354
H        30.02319379597263   -2.65117828744683    0.11582046727142
H        30.11556461973727    2.61959289072621   -0.07613266683862
H        28.23720223143243    4.53863987901025   -0.23419592215245
H        25.62749702695163    4.53483462158083   -0.30337895086640
H        23.00732789951494    4.61532079026072   -0.35375925477064
H        21.07130234215960    2.75281642312281   -0.21426923062227
H        21.05884644337135    0.14163213652707    0.02371845968154
H        20.98069465194478   -2.46696902765552    0.27455518983859
H        22.85121615255866   -4.39380338236275    0.43750371416532
H        25.47231331529214   -4.40416023466838    0.39317087063325
Zn       58.22928319251318    0.07233345045094   -0.00340360933703
C        55.73094134800229    3.02860423416837    1.79276004653966
C        54.76853199048902    2.20831222603570    1.30667330659126
C        55.44392885079166    1.13700843915908    0.63132718520464
C        54.79333045702591    0.07659630366921   -0.01781448020290
C        55.44688487201689   -0.98130759010359   -0.66824855563663
C        54.77450519354424   -2.04585043995044   -1.35727853252587
C        55.73908715350603   -2.86320994181030   -1.84411071830112
C        56.99825257006883   -2.29390288408480   -1.45556990169710
N        56.78901820914366   -1.14944235531617   -0.74654847018782
C        58.23312931680831   -2.84027764635767   -1.76339070597763
C        59.46597316994865   -2.31298415537331   -1.41749743260814
C        60.73249693217535   -2.90701385076771   -1.75008346971052
C        61.68876788124610   -2.09383763535662   -1.24436200641039
C        61.00727243501102   -1.00126527600485   -0.60379659414894
N        59.66349412753137   -1.16190706474475   -0.72278225044474
C        61.63811120747868    0.05610307537961    0.03118769063656
C        61.00462454530770    1.12169556588467    0.64959607231104
C        61.68349461362811    2.21096900879210    1.29854542021516
C        60.72509069307613    3.03828825257044    1.77654539217499
C        59.45992851074113    2.45489272791573    1.42084064115004
N        59.66034972507363    1.29706252286122    0.73824374251272
C        58.22545117823195    2.99497888708747    1.74006405474732
C        56.99189550325626    2.45276614183431    1.41990067149004
N        56.78578496098736    1.30335271445337    0.71808832354552
H        55.61293284152898    3.93532712752317    2.35420462636075
H        53.70375227809709    2.29820901862770    1.39949325587517
H        53.71023240774469   -2.13306634523428   -1.45886245082554
H        55.62354809010723   -3.76444298392191   -2.41484745379486
H        58.23336136080347   -3.76274286716154   -2.32733118656096
H        60.85399918798130   -3.82251281052314   -2.29672622329667
H        62.75500709258946   -2.20603711372680   -1.29150020701222
H        62.71902957777932    0.05011493832703    0.04368571922604
H        62.74957070630913    2.31191084996668    1.36901617101995
H        60.84424230216322    3.95646431015382    2.31920800471807
H        58.22298437710038    3.92226152935057    2.29603037813972
C        30.38851616466784   -0.01969394904295   -0.00128548064251
C        31.60120262109041   -0.03704935909198   -0.02406530051623
C        41.28342202789740   -0.02291724785983   -0.05135892465827
C        42.49610753588178   -0.01587576338559   -0.03482050972118
C        52.17684259708226    0.07227687519659   -0.00835409479303
C        53.38964806895426    0.07302888596037   -0.01605955304964
Zn       36.44276197007083   -0.05475215897497   -0.07717527950849
C        33.96030144380892   -3.00222115326480    1.75122033245354
C        32.99354799141346   -2.17636853890752    1.28288088223461
C        33.66182032134105   -1.10852626842122    0.59604015810876
C        33.00422828481861   -0.04853285857817   -0.04731301843025
C        33.65444050626532    1.00116935048236   -0.71505867524319
C        32.97792755920319    2.06005834707334   -1.40790049653019
C        33.93949024117936    2.87053506112687   -1.91234509626133
C        35.20032769105808    2.30265012416409   -1.52960351920823
N        34.99597810323900    1.16498838799301   -0.80797173506305
C        36.43332309056734    2.84260830552062   -1.85334440644795
C        37.67011428650932    2.32033691844007   -1.51579952045754
C        38.92755544691952    2.90800893398977   -1.87969311753600
C        39.89439135270518    2.10238992514922   -1.37738951160961
C        39.22390093507410    1.02549552040758   -0.70654998930502
N        37.88147253394855    1.17756911238399   -0.80430872593569
C        39.88042373087214   -0.03608355547987   -0.06528230635446
C        39.23128039724008   -1.11167844900082    0.55990946579073
C        39.90851967901252   -2.19127141946523    1.21955080512444
C        38.94722610092965   -3.01927556345638    1.69514511593951
C        37.68608530644787   -2.43921065136821    1.33172211082439
N        37.88995214188091   -1.28175452096317    0.64220917870227
C        36.45296803391065   -2.97606745009119    1.65951823385272
C        35.21645428130237   -2.43159651042476    1.35753633849036
N        35.00416772029062   -1.28019131746151    0.66031727630392
H        33.84764443021448   -3.90895794598247    2.31374313557885
H        31.93033568124008   -2.26091011535393    1.39522345267811
H        31.91307245787477    2.14748170702446   -1.50153241616222
H        33.82055828882432    3.76599975904516   -2.49129935320525
H        36.42982800534192    3.75853177486996   -2.42794235020109
H        39.04095288406194    3.81240507929912   -2.44575632827895
H        40.95923922148113    2.20464776231613   -1.45750045212366
H        40.97355290846429   -2.28127523870956    1.30969430293265
H        39.06622891529010   -3.93335303773222    2.24425192698545
H        36.45577785550459   -3.90344579880999    2.21550089930176
Zn       47.33610223866486    0.02865847217869   -0.00176488411994
C        44.87454474670616   -3.45205401782013   -0.16162267308868
C        43.90189300684519   -2.50895280015116   -0.14105586376208
C        44.56370872281092   -1.23786204431669   -0.06564618707366
C        43.89909491022341   -0.00273374556967   -0.02094220125065
C        44.54009945446540    1.24423106035328    0.03727320141620
C        43.85431865754266    2.50262442223753    0.11193638257778
C        44.80949515739255    3.46290384116422    0.15103396356252
C        46.07524281982666    2.78847717212968    0.10420571110126
N        45.88023791580576    1.44139118433230    0.03966289542467
C        47.30423579226420    3.42551006322635    0.11655899175677
C        48.54478745839050    2.81192228840843    0.08053605834957
C        49.79727314584152    3.51193941306190    0.07078061207428
C        50.77008977340081    2.56956481104076    0.03162664190308
C        50.10877527305018    1.29612507329445    0.02515336369430
N        48.76515619951868    1.46762065149953    0.04866026511433
C        50.77358824706627    0.06058282065218   -0.00344501881397
C        50.13186778949358   -1.18740623349912   -0.02630762478023
C        50.81685760574278   -2.44834400731778   -0.02747755820332
C        49.86162155269837   -3.40884777901366   -0.05876980559397
C        48.59636163008533   -2.73230238209312   -0.07083491340524
N        48.79168305535324   -1.38394593976229   -0.04628784496567
C        47.36754330981390   -3.36895491135552   -0.10601267944620
C        46.12713779171313   -2.75440539451580   -0.10502144234710
N        45.90707610797774   -1.41072420833114   -0.05038281700980
H        44.76836144251138   -4.51846002018688   -0.21403893555482
H        42.83857387062449   -2.64311616483639   -0.18482541266060
H        42.78816468978561    2.61711914564122    0.14273821744075
H        44.68334224925962    4.52684708567831    0.20918061800821
H        47.29439621312423    4.50602708811968    0.15526976085762
H        49.90349785954422    4.57949990468523    0.08722211816435
H        51.83329194550360    2.70681164359599   -0.00339009745491
H        51.88247548681974   -2.56567589571277    0.00622635588646
H        49.98761028555604   -4.47434145321981   -0.06927115031191
H        47.37775557765742   -4.44967808761711   -0.13852691940827
