206
 energy: -354.924809365144 gnorm: 0.000722858425 xtb: 6.4.1 (bd6e46d)
C        28.94824214433078    3.41006664572207    0.28054372629506
C        29.90604169114942    2.46391150808419    0.22970143951111
C        29.20801695095073    1.19652698784638    0.10806168724512
C        29.87119623406805   -0.04480803161658    0.02832016301309
C        29.21921019859639   -1.28440352036748   -0.08122771890075
C        29.81905230500467   -2.56958043853102   -0.16114457965774
C        28.81227431527960   -3.48636709413424   -0.25907578302125
C        27.57618472149271   -2.78074445889581   -0.24236397487414
N        27.87481124237005   -1.45645804933312   -0.13255340442552
C        26.30780909775198   -3.33578817571076   -0.32645133609615
C        25.09118288027528   -2.66757977708244   -0.32015795822305
C        23.81446975358777   -3.36007118941291   -0.42143189924702
C        22.86560446422575   -2.40630842279231   -0.38651071153047
C        23.56982789072844   -1.13945652066574   -0.26276109601713
N        24.90503986100617   -1.33479595690588   -0.22628078547212
C        22.92432653344102    0.08860959705651   -0.19175062981769
C        23.55120921300365    1.31912887294766   -0.06959342567617
C        22.94971922564585    2.60752092830760    0.01259839159608
C        23.95239014308147    3.52469052492729    0.12487488128681
C        25.19213483925812    2.82098405840550    0.11329996077577
N        24.89744498637206    1.49977253578785   -0.00491276083609
C        26.46066388112411    3.37485011786701    0.20237783302915
C        27.67796979822308    2.71053497603639    0.18733473547684
N        27.87683202860922    1.37421095159255    0.08535548155319
H        29.05381404889849    4.47417616974001    0.36992835620029
H        30.97244515292364    2.57451231156290    0.26874522369529
H        30.87577966769387   -2.75308657833027   -0.14476627730704
H        28.90612532598631   -4.55202607365386   -0.33701744931588
H        27.20643838243291   -0.69543407520954   -0.09497685162781
H        26.26519997345938   -4.41310721327346   -0.40914455624416
H        23.70290389078458   -4.42415191291158   -0.50609579748661
H        21.79849421854504   -2.50931008501006   -0.43606187651560
H        21.84473434824064    0.08462143291128   -0.23360586182393
H        21.89336370195983    2.79248935294076   -0.01172720103361
H        23.85713442334031    4.59002484630837    0.20813775676554
H        25.56412851388736    0.73798576534600   -0.04189897746356
H        26.50472337090201    4.45169248325449    0.29155370514984
C        88.40065169494262   -3.39424881752683    0.47018346798861
C        87.44294064380587   -2.44780679114230    0.42238453032074
C        88.13914977552989   -1.18443074352503    0.25699684907791
C        87.47520948025804    0.05579595403298    0.16555786041742
C        88.12559310675894    1.29340706163958    0.02750544614371
C        87.52457042876630    2.57813600852339   -0.05075642909831
C        88.52927149639869    3.49372069757044   -0.17742952746307
C        89.76506401986016    2.78748720355482   -0.18263447713767
N        89.46859676294724    1.46439923076240   -0.05384483575390
C        91.03138278666519    3.33991117298294   -0.30592111714002
C        92.24618310862664    2.66886229285495   -0.33191753685854
C        93.52044447921190    3.35676224284885   -0.48319552071195
C        94.46734376361184    2.40047831445567   -0.47354324746085
C        93.76457496292676    1.13685852748479   -0.31334278720529
N        92.43198441096334    1.33644652385742   -0.23227695637803
C        94.40933140514110   -0.09210326988812   -0.25180941531810
C        93.78519183114066   -1.31954116203042   -0.09092479373549
C        94.38773535103830   -2.60762162602827   -0.01115562981597
C        93.38891271750302   -3.52122445793067    0.15262873109808
C        92.15039483814863   -2.81566700399072    0.17524106995678
N        92.44201295985570   -1.49698404113736    0.02539122633897
C        90.88504363955285   -3.36554568428322    0.31817282321434
C        89.66886660173060   -2.69907090834931    0.32876450246871
N        89.46913402105194   -1.36466286574471    0.20546169231701
H        88.29613799337270   -4.45598327517591    0.58533988861998
H        86.37773131112114   -2.55583999459298    0.49062843448859
H        86.46850102824658    2.76225325970545   -0.01274893616529
H        88.43407818316854    4.55877272184098   -0.26164357110583
H        90.13808181705851    0.70403698977089   -0.02452116207493
H        91.07344721102471    4.41639438625310   -0.39897149128587
H        93.63178432789718    4.41970216214200   -0.58136291199408
H        95.53231761747726    2.49981895781618   -0.56159247742817
H        95.48672641440152   -0.09132577523497   -0.33262831157487
H        95.44225966067495   -2.79477125547594   -0.07165271146524
H        93.48601731889245   -4.58529554597741    0.24886630133570
H        91.77459269887484   -0.73537988277081    0.00104410150479
H        90.84248165786761   -4.44047525387784    0.42837677138524
C        31.26680543134032   -0.04849323736456    0.05497175527484
C        32.48720861092049   -0.04204471104295    0.07016630137918
C        33.82269388752272   -0.03261666788437    0.07943125274182
C        35.04754365394304   -0.01699240631862    0.08111520860631
C        36.38280446236008   -0.00309970515408    0.07615939735261
C        37.60345797932063    0.01205339704988    0.06658150821178
C        47.42639351860174   -0.02413845319191   -0.01821609270516
C        48.64726181061598   -0.00948257409119   -0.01769506839667
C        49.98201809677580    0.00470068363855   -0.01630149258276
C        51.20715971699534    0.01920769296491   -0.01187725089985
C        52.54190915662538    0.03158378317196   -0.00842174993469
C        53.76283177792622    0.04248832823000   -0.00391801509075
C        63.58841790406855   -0.02674722801816   -0.01146281646782
C        64.80936272623214   -0.01641761609351   -0.01443564769048
C        66.14406869073034   -0.00437338695656   -0.01589477743195
C        67.36914360471175    0.01007557238852   -0.01521987397336
C        68.70385842759528    0.02399628417828   -0.01188224906002
C        69.92480004897384    0.03764996639910   -0.00434876347982
C        79.74389422209158    0.00366706620195    0.17037655092392
C        80.96434006906007    0.01812015802324    0.19621138913552
C        82.29937086118436    0.03188522545590    0.21409047094601
C        83.52420638703983    0.04555890464493    0.22502475638125
C        84.85960976545175    0.05453269622570    0.22073845149282
C        86.08006041924739    0.05991189226083    0.20534523631971
C        39.98461963955096   -3.40037716358502    0.46239063329121
C        39.00778753762128   -2.47791281397995    0.35965825928585
C        39.68045324106470   -1.20305141314312    0.19310116049792
C        38.99779518389359    0.02209521329026    0.05022611138917
C        39.64429129018315    1.25958932378928   -0.11281446709854
C        39.04750578119285    2.53774478243969   -0.26775740154049
C        40.05881170250042    3.44643053816285   -0.40019341779995
C        41.29256025029429    2.74150709367561   -0.32816973832386
N        40.98974262837800    1.42562770647172   -0.15375425013546
C        42.56060298962417    3.29952668588764   -0.41948195420082
C        43.78880318976054    2.66216622532631   -0.35059087140367
C        45.04572182643410    3.38381655981868   -0.45711721850395
C        46.02256265843531    2.46278244992923   -0.34241169619705
C        45.34967241015993    1.18882300613405   -0.16931721273445
N        44.01491923473679    1.33707026769267   -0.17838153943515
C        46.03244315598301   -0.03514660914549   -0.01452000519980
C        45.38567096555671   -1.27295884542991    0.14486708871575
C        45.98283100659693   -2.55100554986722    0.30031463060870
C        44.97172346800497   -3.46149299052858    0.42042935399977
C        43.73763532967403   -2.75767094198185    0.34172173941874
N        44.04034585663467   -1.44064842508677    0.17463500068316
C        42.46961548251737   -3.31657920443152    0.42337868606347
C        41.24142120033175   -2.67832358494579    0.35758762116778
N        41.01549786045588   -1.35219885706771    0.19546119148593
H        39.89995266883107   -4.46172293079777    0.59576386506007
H        37.94343644154694   -2.60942593347209    0.38884410881717
H        37.99116670416903    2.72355738705626   -0.27549956999149
H        39.96816712147008    4.50666126509802   -0.53528286851349
H        41.64343425006495    0.65515467442867   -0.06541984633471
H        42.59034510960139    4.37159525319332   -0.56066547526673
H        45.13077795042767    4.44411708547649   -0.59836274234896
H        47.08697376612476    2.59462348743794   -0.36821281839879
H        47.03932791994016   -2.73547661502081    0.31574869236089
H        45.06254756491973   -4.52216059275600    0.55186714928504
H        43.38602514432195   -0.67107779205426    0.08370644474507
H        42.43921475627555   -4.38955643919581    0.55732317770835
C        56.13000145422373   -3.37582303106713    0.42773246043811
C        55.15669401229133   -2.45110005192144    0.31270232345259
C        55.83446224691545   -1.17823600815775    0.15131732301025
C        55.15675798562535    0.04869987905941   -0.00210828556086
C        55.80933637070623    1.28441529686243   -0.15459082419054
C        55.21884931809803    2.56529989729775   -0.31125339986583
C        56.23496506912151    3.47138300699035   -0.42304622274212
C        57.46523834326614    2.76192706723319   -0.33736560903874
N        57.15561474995234    1.44597920236248   -0.17535762488005
C        58.73598986786767    3.31665251481260   -0.40743045270664
C        59.96161549456635    2.67505319858248   -0.33180869494877
C        61.22138564413014    3.39389523616317   -0.42254254572933
C        62.19468710895865    2.46858284822768   -0.31228503381509
C        61.51686814983460    1.19517629090835   -0.15545865843456
N        60.18254883468209    1.34780376887729   -0.17054358256416
C        62.19452002754823   -0.03244378786382   -0.00741806636056
C        61.54196921760737   -1.26797616747126    0.14668702126733
C        62.13249016707129   -2.54895089466834    0.30245994904188
C        61.11640588422627   -3.45451142679026    0.41883269455930
C        59.88613699096144   -2.74469638165166    0.33638806522088
N        60.19570711813662   -1.42903723218151    0.17196745877586
C        58.61536690421636   -3.29889802553130    0.41047364249601
C        57.38975997051036   -2.65728983971708    0.33450295202533
N        57.16879256116275   -1.33065619883724    0.16836846497320
H        56.04080560196696   -4.43671055065426    0.56182830654717
H        54.09174148079418   -2.57962848920146    0.33095896177786
H        54.16329312273601    2.75437368021015   -0.33333919708432
H        56.14987675934363    4.53270266634815   -0.55297232761574
H        57.80478285961004    0.67223701919918   -0.08185697417252
H        58.77077544185553    4.38982989346286   -0.53877059555887
H        61.31057713074551    4.45536107828461   -0.55204821283812
H        63.25965689747471    2.59713406428606   -0.33042612546326
H        63.18804120293194   -2.73839955691747    0.32117801472701
H        61.20155110823815   -4.51571830122429    0.54964270185420
H        59.54651142403387   -0.65514803057920    0.08005702495944
H        58.58052783204819   -4.37174882035500    0.54443619821212
C        72.29308060083397   -3.37447102785114    0.45965034745291
C        71.31974992542027   -2.45187852315298    0.32896842157169
C        71.99730367857025   -1.17791578831001    0.17480574679224
C        71.31873548540767    0.04674891883489    0.00751109947980
C        71.96902000671798    1.28306253600468   -0.14888008505558
C        71.37542488705679    2.55949777965713   -0.32942461146779
C        72.38892135530749    3.46856734089867   -0.43972573693826
C        73.62097024880364    2.76573476118518   -0.32773842835340
N        73.31466331582280    1.45045486969011   -0.15363373678407
C        74.89067258284079    3.32403596815547   -0.38347218222743
C        76.11640189139128    2.68733713629019   -0.27248641535350
C        77.37568940077507    3.40917540956172   -0.34358931235997
C        78.34889120152882    2.48911017254437   -0.19507737562881
C        77.67157490076832    1.21557762539415   -0.03704694057029
N        76.33738290434910    1.36338549811679   -0.08694881210944
C        78.34990615879907   -0.00748044421788    0.14050064038210
C        77.69990846044735   -1.24547022422554    0.28511489313636
C        78.29330570283574   -2.52272969145710    0.45889573518093
C        77.27978392992256   -3.43387021408591    0.55212397340721
C        76.04805822672745   -2.73110134695223    0.43815972454727
N        76.35419341010990   -1.41413973769183    0.27810975883489
C        74.77840093345172   -3.29090853015737    0.48571760144056
C        73.55255268997838   -2.65331726148774    0.38495763621632
N        73.33140866974504   -1.32749241818052    0.21187865852826
H        72.20408230363689   -4.43528149693744    0.59441474614671
H        70.25494060426537   -2.58287877832108    0.33132072858003
H        70.31948261653622    2.74380470569295   -0.36786351511795
H        72.30091634075197    4.52772985798848   -0.58455642893436
H        73.96751057984524    0.68237535124969   -0.04226058499024
H        74.92480402882072    4.39526541659597   -0.52990014700113
H        77.46439027443215    4.46889960466517   -0.48695503175973
H        79.41354306881247    2.62130403598942   -0.18894182929306
H        79.34908978811195   -2.70642198225227    0.50393114195101
H        77.36766708881783   -4.49429736772245    0.68739281795760
H        75.70196883644547   -0.64552781657663    0.16646746412053
H        74.74505980456257   -4.36361627908596    0.62105780065268
