76
 energy: -130.006133336953 gnorm: 0.000589679095 xtb: 6.4.1 (bd6e46d)
Zn        7.93021422486976   -0.05764163060581    0.04850348162064
C        10.42584281243919   -3.51956472682482    0.11666178466323
C        11.38870766845689   -2.56679285775956    0.14965414090785
C        10.71315607700079   -1.30072367066494    0.13474413627636
C        11.36438171907593   -0.05684032517293    0.16084176076960
C        10.71168874474769    1.18673242355072    0.14978397626434
C        11.38617153693535    2.45311900127280    0.18101904239569
C        10.42262978513432    3.40543282352795    0.15572768252650
C         9.16310959278915    2.71854625652417    0.10860142505973
N         9.37083729098689    1.37166034022394    0.10719432189580
C         7.92927029011452    3.34607418157261    0.06694329017556
C         6.69664723241218    2.71691060072195    0.01563089242611
C         5.43142243918894    3.39846617202936   -0.03131074805910
C         4.47515976173680    2.44178927359785   -0.07418883442071
C         5.15537432964095    1.17473697140158   -0.05273192462408
N         6.49837707979909    1.37268867672182    0.00103516650578
C         4.52419651340855   -0.05817252134897   -0.08027344251111
C         5.15609571500132   -1.29086584931871   -0.05722481693662
C         4.47660082841472   -2.55816453690492   -0.08301494161909
C         5.43361167264594   -3.51444079041631   -0.04790170554864
C         6.69858441698327   -2.83243330383499   -0.00174732895529
N         6.49932310443994   -1.48817811611788   -0.00757966409978
C         7.93189062887099   -3.46111498815654    0.03921890686933
C         9.16559507254043   -2.83325200170103    0.08093625062613
N         9.37227536009958   -1.48630600351047    0.09321388318430
H        10.54324313336780   -4.58607320413757    0.11537502731999
H        12.45385041536871   -2.69137962972689    0.18106118992630
H        12.45112134559288    2.57835417530757    0.21695798582809
H        10.53933337016953    4.47199801921890    0.16672454536820
H         7.92985988761303    4.42727677689931    0.07325696982594
H         5.31079253634077    4.46486333371731   -0.03085142697363
H         3.40967393663199    2.56302124256346   -0.11630300564304
H         3.44397100231016   -0.05830276076632   -0.12233155053794
H         3.41104405321357   -2.67968068028840   -0.12232035122246
H         5.31337029486112   -4.58086838967701   -0.05261735223904
H         7.93283729262683   -4.54234335194163    0.03677627405489
C        12.76271883993274   -0.05422236607914    0.19317920373827
C        13.98057159136542   -0.04372612474579    0.21399959873066
C        15.32271661708107   -0.03325661863729    0.21809272102479
C        16.54065484162161   -0.01533900240006    0.20957607429348
Zn       21.36660802544661    0.05987192758003   -0.05317705095466
C        18.82630294867651    3.48231626777080    0.17021329693266
C        17.87839528229430    2.51496251371199    0.21038900296656
C        18.57092229233199    1.25962363508439    0.14491922986945
C        17.93848279311500    0.00589168332288    0.16629635392879
C        18.60965158799019   -1.22740479121166    0.13672708382239
C        17.95635307607656   -2.50385800319319    0.19341246205394
C        18.93367476763223   -3.44119487031046    0.14455190572003
C        20.17998741864845   -2.73506280414398    0.05328624665382
N        19.95137492646611   -1.39157667101257    0.05469444641419
C        21.42105324344814   -3.34317169907545   -0.03681909017647
C        22.63957094028984   -2.69479194155156   -0.14863033848132
C        23.91117698968572   -3.35653686594629   -0.26252854182373
C        24.84851021035129   -2.38509506337146   -0.35813878154390
C        24.15077870755842   -1.12879388200527   -0.29948558860903
N        22.81589047330004   -1.34758210443814   -0.17409996722465
C        24.76077138060408    0.11383445423223   -0.35553482832661
C        24.11293868241134    1.33642693817881   -0.28618727761695
C        24.77166842519303    2.61415465283809   -0.33099578669591
C        23.80458660410623    3.55517862333305   -0.22720058339355
C        22.55395336028856    2.85345728481143   -0.12243039678080
N        22.77170576202892    1.51266103377836   -0.16038728048397
C        21.31565455822240    3.46287476830611   -0.00756747451111
C        20.09401425129261    2.81576078427545    0.07512806263553
N        19.90702544280182    1.46589736396918    0.06560470948365
H        18.69413211414832    4.54671722716495    0.19944597220655
H        16.81317427548599    2.62248831769219    0.27956234887068
H        16.89510999812025   -2.64520927379305    0.26332504456448
H        18.83413668925510   -4.50934046260836    0.16521115221455
H        21.43806740300134   -4.42422060491909   -0.02724629941761
H        24.04787097740924   -4.42095480890328   -0.26824935576489
H        25.91187835822736   -2.48957417125191   -0.45818586885940
H        25.83692376712836    0.13074230691565   -0.45692212154003
H        25.83148988945835    2.75225123295780   -0.42804152470754
H        23.90884069588222    4.62326922771856   -0.22215416746773
H        21.29920071523332    4.54377790897812    0.01154429871893
