296
 energy: -539.409598386218 gnorm: 0.000461802472 xtb: 6.4.1 (bd6e46d)
Cu       59.53175627618165    0.03641048559181   -0.01199772404392
C        62.01716380088201   -0.70116826347151    3.36268609902973
C        62.98119384829135   -0.48118840262728    2.43761150009714
C        62.30934411511189   -0.23222850249752    1.19445776212796
C        62.97127972471416    0.03073215660451   -0.01269685609866
C        62.30944563000529    0.29419426587550   -1.21991278140407
C        62.98150370392805    0.53775737313838   -2.46395908141748
C        62.01779921019624    0.75915249159708   -3.38904836409675
C        60.75892517021391    0.64448629689930   -2.70978934532316
N        60.96934840852262    0.35743037479982   -1.39652285507442
C        59.53044710915519    0.80750106388898   -3.32484172339666
C        58.30257379030756    0.68141281063012   -2.70054063383042
C        57.03807411450153    0.85216473862018   -3.36294121673112
C        56.07939468807408    0.63662411306856   -2.43347661706708
C        56.75706254031864    0.33349989379536   -1.20213348483050
N        58.09966570111758    0.37135052204117   -1.39490638411961
C        56.11498850669773    0.04264693252793   -0.01125701611682
C        56.75671191293706   -0.25098068067611    1.17908711560578
C        56.07866837356763   -0.55098982408749    2.41094359823234
C        57.03706123316810   -0.77086613363590    3.33967384214912
C        58.30181182932969   -0.60588614457080    2.67630127233110
N        58.09936019203634   -0.29480428441527    1.37086562286727
C        59.52943074778664   -0.73813514865847    3.29991212789181
C        60.75829829640954   -0.57989915810921    2.68440577841594
N        60.96914187250732   -0.29092974151951    1.37167270312473
H        62.12885264581006   -0.92154003922842    4.40668747564806
H        64.04581389159338   -0.46987034784670    2.56668315469495
H        64.04597188712390    0.52175357243951   -2.59374205767551
H        62.12975219315098    0.97619898660256   -4.43369692718756
H        59.53140742643539    1.04815970437882   -4.37819269755139
H        56.92342246278103    1.10300437817516   -4.39991188318547
H        55.01312994441636    0.67269071951186   -2.54792130091924
H        55.03475816738854    0.04494624134645   -0.01089214512529
H        55.01235215348377   -0.58224066914569    2.52622116926443
H        56.92206361057884   -1.02082211146867    4.37681354033281
H        59.52978445552606   -0.97984328107240    4.35301578885288
Cu      135.91615525694337    0.03657865860026   -0.01607586687857
C       133.43243729466664    1.18285814895157    3.24353540648391
C       132.46811511598568    0.84868862852883    2.35364002366145
C       133.13955134990493    0.44833248008347    1.15047176066620
C       132.47689217322070    0.03419095843533   -0.01313364863920
C       133.13781024751938   -0.38121095313331   -1.17726434764964
C       132.46494746954491   -0.78685908964650   -2.37789278396180
C       133.42822543193594   -1.12295000355984   -3.26820684719603
C       134.68764534860580   -0.91576016522744   -2.61218139206755
N       134.47788080195045   -0.46229674678652   -1.34663143513979
C       135.91605316709035   -1.14818656062522   -3.20462422970180
C       137.14414452341515   -0.93558126661770   -2.60462969254176
C       138.40850850344501   -1.17942890937796   -3.24398731967100
C       139.36745358203530   -0.84482422776229   -2.35075236361728
C       138.69009844237706   -0.39555943188378   -1.16475077910177
N       137.34736135010476   -0.46416879308074   -1.34826061914685
C       139.33273226525745    0.04238837405819   -0.02013795234663
C       138.69167355950347    0.47871461935573    1.12599780833713
C       139.37031198341424    0.93150565078743    2.30991768864771
C       138.41236770734815    1.26234909965428    3.20564449388449
C       137.14734498595922    1.01230177702334    2.57000459340014
N       137.34917603749582    0.54191625779186    1.31306799113330
C       135.91992636777141    1.21722781398276    3.17404378427480
C       134.69100123632538    0.98059003830465    2.58439208176781
N       134.47977745897634    0.53061751445659    1.31776705021254
H       133.32110773124174    1.53031449866602    4.25241014730146
H       131.40357642298233    0.85196575684512    2.48392723772836
H       131.40024225546915   -0.79195242684685   -2.50664643050056
H       133.31556895426465   -1.47483868765081   -4.27540476484304
H       135.91490481533828   -1.52083916831532   -4.21881849360112
H       138.52289851947211   -1.55555949316697   -4.24238413730435
H       140.43372867896952   -0.88837621851027   -2.46242104912022
H       140.41296558143245    0.04382018913302   -0.02144538399466
H       140.43668791571002    0.97989420459708    2.41859450828846
H       138.52791847442836    1.64007873754489    4.20331017318007
H       135.91981124671216    1.58782559483586    4.18898708067011
C        64.37368966668495    0.02994204706652   -0.01324520847271
C        65.58668626745208    0.02940987291493   -0.01230050935006
C        75.28487864084921    0.05570205960997   -0.02108160042153
C        76.49840720277160    0.06020455665363   -0.02206410104950
C        86.19962485226394    0.03546443719956   -0.02449640387229
C        87.41342158550015    0.03492179185130   -0.02353402078656
C        97.11671007155140    0.04188505150726   -0.02392390896321
C        98.33062348152265    0.04175020477151   -0.02586404889327
C       108.03313363067879    0.05359475565122   -0.02777785501275
C       109.24692806784677    0.05352753013235   -0.02632995549219
C       118.94864171790041    0.03130480678966   -0.01668259348447
C       120.16218950943416    0.03362484133196   -0.01727221676322
C       129.86145065087180    0.03493748693964   -0.01158802714924
C       131.07442797698207    0.03445987661897   -0.01185883082308
Cu       70.43555614144793    0.03624167476082   -0.02196006098845
C        67.95829018583483   -2.23773184886660    2.58442862750453
C        66.98974681239656   -1.63732737944464    1.85272243714080
C        67.65542357493749   -0.78066880933673    0.91383230380388
C        66.98857031567071    0.03055882412179   -0.01506586081228
C        67.64903481617446    0.84197445694318   -0.94840311030592
C        66.97690206896633    1.69381136050746   -1.88711213798260
C        67.94042086145912    2.29228432586999   -2.62693528606985
C        69.19862939371980    1.81026419999625   -2.13349305018310
N        68.98838852350801    0.93789751366371   -1.11076558541925
C        70.42665664007242    2.18364360543435   -2.64864280151719
C        71.65789261890099    1.75841707195575   -2.18360782583511
C        72.91236358401146    2.15331649040411   -2.75705538701524
C        73.88102589695652    1.55349111669791   -2.02498729624077
C        73.21595389125518    0.79983101575935   -1.00145379170841
N        71.87549511359343    0.93122833682160   -1.12530839929363
C        73.88361497749553    0.05131903457201   -0.02120059236887
C        73.22193991989252   -0.70498584715274    0.95738431347253
C        73.89305664534687   -1.45670870165758    1.97835765421947
C        72.92954550895425   -2.07025333140792    2.70583532899941
C        71.67194211600332   -1.68429934737820    2.13323147110795
N        71.88273790477599   -0.84977212294029    1.07934767375350
C        70.44416534916263   -2.12089958935483    2.59684951087944
C        69.21296509703556   -1.75060504799563    2.08707887945656
N        68.99578814522262   -0.87431255857592    1.06909447021083
H        67.85196745753844   -2.94561961333294    3.38353646940589
H        65.92614013778358   -1.75909188725672    1.91733090291861
H        65.91281229870617    1.81384163944147   -1.94621305336572
H        67.82846670461092    2.99630974805157   -3.42867501415594
H        70.42406015334566    2.86733162273122   -3.48557217054590
H        73.01863978876817    2.79913487135914   -3.60710798200571
H        74.94444134286954    1.59373163518461   -2.15710160036783
H        74.95652075798375   -1.48645215424063    2.11255698261795
H        73.04130850644967   -2.71954669241367    3.55251464929468
H        70.44719568320907   -2.80937239949138    3.42984374922387
Cu       81.34867288775318    0.05136018805139   -0.01883813743790
C        78.85665092570612   -3.01186957074706    1.56047166849441
C        77.89250791360377   -2.18702095477975    1.08701480981707
C        78.56232620352584   -1.04297415277788    0.53909958088658
C        77.89959629988175    0.05916831163345   -0.02085988306169
C        78.56735785860462    1.15906218948611   -0.57874828314677
C        77.90341917183203    2.30628604463704   -1.12712753374466
C        78.87217051455177    3.12858534356835   -1.59568677178598
C        80.12563163472295    2.48493691438709   -1.32559999898626
N        79.90754298597051    1.29696544522504   -0.69888517391766
C        81.35621222088007    3.00651874692869   -1.68129223886240
C        82.58368062180604    2.42534418859203   -1.41963004566034
C        83.83975765533410    2.98276859550170   -1.83144112734301
C        84.80402813861048    2.14846500120064   -1.37506802149351
C        84.13519258556828    1.08874920772730   -0.67717088560805
N        82.79603974517997    1.27121080507098   -0.73051710769113
C        84.79856319264580    0.03932144224802   -0.02391732633521
C        84.12993069644253   -1.00494972020006    0.63215013663603
C        84.79361674374752   -2.06753487676236    1.33059867528487
C        83.82493636592160   -2.89309851199003    1.79344309156308
C        82.57152332310046   -2.32794680815399    1.38410314464169
N        82.78973197213182   -1.17762058167104    0.69050496824870
C        81.34099727441799   -2.90063114416734    1.64992215965775
C        80.11327331422345   -2.37374688506118    1.29240504841812
N        79.90149535403386   -1.18596178636353    0.66299685392529
H        78.74586232523167   -3.96396484661037    2.04235089492922
H        76.82949190903106   -2.32783015198122    1.08637866215527
H        76.84076040556729    2.45041579753715   -1.13029975634445
H        78.76659961568292    4.08195311020525   -2.07623008438739
H        81.35883073945519    3.94880549702637   -2.21045750333834
H        83.95016274598591    3.88800674990795   -2.39652684848004
H        85.86657224867898    2.21853009495105   -1.50065622729473
H        85.85613273565994   -2.14530730963661    1.45185169657553
H        83.93050504977698   -3.79720559185603    2.36123677826760
H        81.33867286771790   -3.84119218699256    2.18213114690703
Cu       92.26489446656875    0.03932551047139   -0.01877817393994
C        89.78515723751362   -3.37024316760431    0.53448331088028
C        88.81762717885233   -2.44470035928061    0.33063886689385
C        89.48176903760904   -1.18396611565938    0.16714594147448
C        88.81443856724528    0.03542640365482   -0.02197078646583
C        89.47986291794464    1.25645466457055   -0.20767801859044
C        88.81337125442079    2.51645136220063   -0.36718713267317
C        89.77926558945136    3.44487589590822   -0.56550235505329
C        91.03391044446379    2.75096658815301   -0.51772711792934
N        90.81928156412971    1.42706873790939   -0.28697615989867
C        92.26196282642601    3.35792700358087   -0.70832402628499
C        93.49119611084244    2.72734937831800   -0.64352191287423
C        94.74431382677464    3.38484622533570   -0.87835066821441
C        95.71185215122547    2.45510784001197   -0.69471323058976
C        95.04812575360555    1.23470719314499   -0.33815230612449
N        93.70849060915202    1.42104115132881   -0.32973670981496
C        95.71574942108371    0.04196486057882   -0.02176075552056
C        95.04992822563919   -1.15099246243807    0.29766733083773
C        95.71619746873445   -2.36959668811988    0.65572466025654
C        94.75034362760593   -3.30002309475373    0.84452678808878
C        93.49577340689369   -2.64494204163859    0.61044090681804
N        93.71052236346463   -1.33914941570029    0.29281611571046
C        92.26778527491419   -3.27764131006849    0.67846592727332
C        91.03847546099139   -2.67401614410225    0.48534825178590
N        90.82139386147678   -1.35150398395650    0.24909175626497
H        89.67877805691056   -4.42498155894866    0.69930456158270
H        87.75575421664843   -2.58414090684855    0.27856529276337
H        87.75119469580893    2.65361412809861   -0.31564816528791
H        89.67084798447716    4.50012421284309   -0.72561904263079
H        92.26085442532923    4.41620053979922   -0.92740117007195
H        94.85064025203506    4.41710245697091   -1.15054058361435
H        96.77347753408593    2.56206539296450   -0.79976286462775
H        96.77827975715476   -2.47452410742101    0.75843065455500
H        94.85873781419888   -4.33135781065706    1.11935990716041
H        92.26906860252367   -4.33511453736638    0.90136378912016
Cu      103.18207148807053    0.04758578049510   -0.03104335514190
C       100.70389539984835   -3.38394692985012   -0.43283423926709
C        99.73597971959619   -2.43861646371888   -0.37167170904524
C       100.39960465506375   -1.18124774129336   -0.18262581063420
C        99.73159603094054    0.04274925428940   -0.02779966334098
C       100.39682183886796    1.26858106399379    0.12476616156959
C        99.72994911529207    2.52422448674727    0.31388585553231
C       100.69508938026263    3.47261597466692    0.37062922794434
C       101.94990214345343    2.79258247841274    0.22643337672471
N       101.73596058521846    1.45539539782992    0.09125699411218
C       103.17757106623850    3.42917817274669    0.20712548209323
C       104.40714471364485    2.80492391897200    0.10109384905545
C       105.66050515749701    3.50150203990924    0.05885291228399
C       106.62837476753128    2.55691017249995   -0.01340225772694
C       105.96429454474286    1.28560010334468   -0.00611549762136
N       104.62449326969141    1.46254735585339    0.04809458789215
C       106.63211374785851    0.05212262658557   -0.02851046326986
C       105.96749990391125   -1.18310296682630   -0.05264656871844
C       106.63470422005628   -2.45276714841678   -0.04529914947350
C       105.66942455509172   -3.39969796374775   -0.12140389532435
C       104.41440448635915   -2.70623560537095   -0.16547296827426
N       104.62826197799374   -1.36339811369267   -0.11018169045856
C       103.18654740146118   -3.33354476608094   -0.27353676575553
C       101.95703413306093   -2.70042334345289   -0.29053968127377
N       101.73942074346174   -1.36408121294105   -0.15272301527016
H       100.59782392985043   -4.44330021943075   -0.56504554320921
H        98.67413414330079   -2.55905072841780   -0.45866748502429
H        98.66803345105819    2.64136144041453    0.40402192165806
H       100.58602079874943    4.53183771610964    0.50136509580007
H       103.17594554944007    4.50725767798347    0.28249371481086
H       105.76674395754461    4.56887371766351    0.07862141653356
H       107.69049665938584    2.68798974988455   -0.08002020185407
H       107.69688622390699   -2.58142688662561    0.02459413491735
H       105.77856082921704   -4.46675374270686   -0.14227623004250
H       103.18797515379363   -4.41147644321304   -0.35111507066512
Cu      114.09802593129251    0.04090108221740   -0.01884394901116
C       111.60810747387404   -3.10566286935649   -1.42624672708194
C       110.64356945453081   -2.21834275706194   -1.08496070653219
C       111.31193608752493   -1.07572133948965   -0.53267233873356
C       110.64797483901457    0.05078392514808   -0.02449543033644
C       111.31609228381838    1.17379138719515    0.48584193145049
C       110.65219922799348    2.32065367259240    1.03476864988573
C       111.62066185592290    3.20199153924517    1.38051135294881
C       112.87418630900615    2.58735478861513    1.05048677330028
N       112.65621950741095    1.35355353751883    0.51932217186656
C       114.10469292948716    3.19107843856776    1.23557676904305
C       115.33256280487728    2.62050378345338    0.95344780739845
C       116.58906686054846    3.28883157007739    1.13451600123257
C       117.55362978202295    2.40723335158227    0.77882432371027
C       116.88416130288029    1.19984137262439    0.38928691336518
N       115.54479512753080    1.35846484555921    0.49084222903773
C       117.54738757950200    0.03252694172467   -0.01678025902013
C       116.87985921609096   -1.13236461176679   -0.42239953624734
C       117.54391667128832   -2.34312523906729   -0.81071544906466
C       116.57529778867674   -3.22061108006535   -1.16577324226347
C       115.32183521896853   -2.54613953144449   -0.98624905256343
N       115.53977846428207   -1.28480182047273   -0.52446110367509
C       114.09140808975359   -3.10997672371456   -1.27086569492583
C       112.86388005855953   -2.49875619186964   -1.09054323193643
N       112.65112331163145   -1.26350732594708   -0.56053252509722
H       111.49800048947033   -4.07752949626626   -1.86703961185853
H       109.58114653482019   -2.30427630687918   -1.20127337470370
H       109.58974250485764    2.41355032895856    1.14555524893706
H       111.51472187766873    4.17466299351349    1.82056247881750
H       114.10696629771402    4.19527694039352    1.63494075990680
H       116.69946955570128    4.29737391421270    1.48322626647556
H       118.61678848371079    2.54609469940793    0.76136710186890
H       118.60650572102116   -2.48678120789809   -0.79330068397456
H       116.68096105383016   -4.22999407711873   -1.51356541677975
H       114.08884798601362   -4.11442185114553   -1.66963443271787
Cu      125.01211580704785    0.04006573140480   -0.01948725121689
C       122.52853517349199   -2.40943629986613   -2.45461042681621
C       121.56170350344017   -1.71487692735401   -1.80894100210010
C       122.22899747708468   -0.83602590259395   -0.89224512281671
C       121.56352046397306    0.03611438256930   -0.01839544488364
C       122.22779337824470    0.91157346368656    0.85317848697641
C       121.55945459133838    1.79152191012625    1.76797875997916
C       122.52518662879578    2.49191932151042    2.40896647300418
C       123.78135632745153    2.03138204535233    1.89089220324019
N       123.56757308994104    1.06738659840634    0.95461287669016
C       125.01047742655126    2.52143255229511    2.29364446993039
C       126.24073796597347    2.08417562397088    1.83741372025065
C       127.49686511130281    2.62844102186195    2.26732412821858
C       128.46365906430313    1.93483091718085    1.62060734105914
C       127.79544626384322    0.96484651992828    0.80134974675908
N       126.45535471660513    1.08172591262423    0.94280447008315
C       128.45950611846231    0.03687835528486   -0.01318276048268
C       127.79612483204555   -0.88924270988833   -0.83042282470248
C       128.46538228936296   -1.85995424203640   -1.64789603478455
C       127.49979314895752   -2.54844524595436   -2.30176493553544
C       126.24319323618529   -2.00153482844810   -1.87654489509968
N       126.45636008226279   -1.00217309211057   -0.97823121689928
C       125.01407878325435   -2.43537887719459   -2.33911479875408
C       123.78412498749378   -1.94767974710674   -1.93618874636659
N       123.56899882392736   -0.98762544800067   -0.99618419873496
H       122.42028734141810   -3.16087097156845   -3.21263605771281
H       120.49825117744687   -1.76774047685844   -1.93636156356526
H       120.49614114835248    1.84126415875268    1.89757126863814
H       122.41592691922578    3.24606979784175    3.16413421877970
H       125.00935098688602    3.31289097715443    3.02951944337573
H       127.60550922870459    3.43420622609847    2.96728776216071
H       129.52763108922460    2.06080601986206    1.66926306169810
H       129.52913136099008   -1.98971383564582   -1.69080350643616
H       127.60936672508576   -3.35281457562832   -3.00315815207531
H       125.01482163931401   -3.22365527160659   -3.07836697720656
