111
 energy: -190.291820373600 gnorm: 0.000328427136 xtb: 6.4.1 (bd6e46d)
Zn       17.03259283957473    0.00013869901830   -0.00142851124023
C        19.52388111682591   -3.09868605774006    1.54861362980696
C        20.48826013731622   -2.24323477500075    1.13175090082731
C        19.81542467326235   -1.12026949623346    0.54342780130177
C        20.46843957298680   -0.01193192570417   -0.01743932181638
C        19.81715774903155    1.10166540815724   -0.56998850424046
C        20.49180305999356    2.22260286111633   -1.16031491703408
C        19.52946949868993    3.08770285051826   -1.56147168881818
C        18.26908096310947    2.49002145795967   -1.22267827186417
N        18.47554764399581    1.28256413624142   -0.62612472768219
C        17.03586479319481    3.06748815525519   -1.47538282337606
C        15.80140163069760    2.50965727800693   -1.18821659287080
C        14.53624595229930    3.13119028140851   -1.47204713058991
C        13.57778961607328    2.26949659680279   -1.05935032972620
C        14.25667032982095    1.12105298458721   -0.52186471482574
N        15.60095220244476    1.29563505467958   -0.61143315818011
C        13.62354692341580    0.00652061023891    0.00374093882765
C        14.25474904927335   -1.10842129107842    0.53068708895487
C        13.57327178933908   -2.25150680840750    1.07611828409910
C        14.52974135096976   -3.11356411655594    1.49258966256256
C        15.79640281622566   -2.49845306234531    1.20134876000651
N        15.59871174819837   -1.28712502627101    0.61799007210466
C        17.02934016147615   -3.06132983482381    1.48536033735116
C        18.26439655235522   -2.49381117090487    1.21946692064504
N        18.47332047969934   -1.29112731154207    0.61429580584525
H        19.63984301526344   -4.04745862318007    2.03619446702511
H        21.55270240300112   -2.34143829079416    1.22008266902039
H        21.55583579344933    2.31311325475493   -1.26067687726834
H        19.64718922298708    4.03852916712507   -2.04462352557088
H        17.03859406984339    4.04093448847151   -1.94591412274268
H        14.41689923481370    4.09614849412980   -1.92630215229399
H        12.51170265365228    2.38313538550457   -1.10651558167757
H        12.54253782440213    0.00757876439304    0.00425412859552
H        12.50690083642035   -2.36122980491559    1.12626938149919
H        14.40830658500138   -4.07493793935441    1.95380102057782
H        17.02889370847352   -4.03171255525033    1.96223446927256
Zn       38.82018466139314    0.04383482843265    0.00161216227290
C        36.31860759544926    3.06464755214090    1.68207347543930
C        35.35702819207057    2.22361126972671    1.23093018276767
C        36.03331574905659    1.12842999054785    0.59601996780516
C        35.38366564665812    0.04215107570967   -0.01020605028504
C        36.03887458209383   -1.04492785878498   -0.60920220438492
C        35.36819842506534   -2.14274154840929   -1.24555748069568
C        36.33357202056538   -2.98632458612261   -1.68355663127033
C        37.59183561518782   -2.39815367400894   -1.32122764230557
N        37.38111464435517   -1.21778180847126   -0.67410981906741
C        38.82718571207209   -2.95896212169917   -1.59973355031025
C        40.05970200698537   -2.40803288658941   -1.29175388230434
C        41.32696263299274   -3.01091186370445   -1.60471439770601
C        42.28247259360294   -2.16283244602333   -1.15826784794159
C        41.59966579857055   -1.04144846895229   -0.57109632296968
N        40.25599097646889   -1.21849355055060   -0.66460837911496
C        42.22924400909515    0.05290968350969   -0.00072805593913
C        41.59438394168864    1.14217112073952    0.57341935794100
C        42.27190812520689    2.26526051361911    1.16351443562433
C        41.31247229397660    3.10480303891255    1.61753994116977
C        40.04798530280629    2.49601427271386    1.30444453205098
N        40.24986055788202    1.31064956490532    0.67129307158625
C        38.81297608472170    3.04038030899350    1.61422648172542
C        37.57999446546999    2.47868300122611    1.32697651226615
N        37.37495251374914    1.30127782666196    0.67281129892466
H        36.19969282521625    3.99205682703761    2.20847385144310
H        34.29231944768595    2.31405064023484    1.32403952345607
H        34.30447572004477   -2.23326631307087   -1.34875448907783
H        36.21923886881766   -3.91636070853095   -2.20634628492240
H        38.82795426873431   -3.91178226853870   -2.11076426523505
H        41.44955827391507   -3.95509338709862   -2.09994112611568
H        43.34893458786716   -2.26916608371607   -1.21310792963662
H        43.31024384388620    0.05660661956187   -0.00275392728998
H        43.33787306792997    2.37812294240581    1.21524948143533
H        41.43068649721882    4.04715416229830    2.11727989357250
H        38.80966402993736    3.99009346142764    2.13101952045022
C        21.87197038634248   -0.01518173865139   -0.02303146439679
C        23.08486132045259   -0.01701628859790   -0.02455984262782
C        32.76719814476834    0.03788495117280   -0.02112083613413
C        33.98010306481964    0.04093071537849   -0.01590364527602
Zn       27.92574158238355    0.01010712627462   -0.02914924288285
C        25.45294722855823   -3.46249165353676   -0.18623675691803
C        24.48320715144617   -2.51637646665594   -0.16430644311165
C        25.14861324154357   -1.24752014311394   -0.08453606554529
C        24.48800368469412   -0.01066456438872   -0.02662467530902
C        25.13443421586731    1.23383109914830    0.03094565488780
C        24.45414561198609    2.49442760104006    0.11543746034400
C        25.41240591483794    3.45212569526523    0.13587371567077
C        26.67505239243399    2.77378004830120    0.07097052644647
N        26.47510635160538    1.42703250353619    0.01409063975532
C        27.90572234596045    3.40758387653605    0.06118803223865
C        29.14401650764393    2.79017103046626    0.01813198520425
C        30.39842788215876    3.48623961850581   -0.00918829153961
C        31.36824757462801    2.54043045363983   -0.03790954919093
C        30.70318349049037    1.26902071025305   -0.02103366357272
N        29.36023428076160    1.44490342118021    0.00367335860627
C        31.36403207109541    0.03086622243147   -0.02496784186488
C        30.71741541396291   -1.21491481030179   -0.03120324110063
C        31.39742133397436   -2.47830864644633   -0.01065298213502
C        30.43914136149828   -3.43569797271169   -0.04187047701121
C        29.17661216227928   -2.75473523286781   -0.07356999379486
N        29.37673627794684   -1.40689438658611   -0.06022758038709
C        27.94600411898798   -3.38736444250765   -0.11682531110199
C        26.70755362069302   -2.76884835039254   -0.12609852542750
N        26.49153948196614   -1.42453300121634   -0.07108349841857
H        25.34344825833530   -4.52847871299697   -0.24087165902990
H        23.41965038759708   -2.64744557904006   -0.21024825411675
H        23.38938717127914    2.61266569545676    0.16628027958426
H        25.29008974258278    4.51654671651828    0.19319573906853
H        27.89905929444178    4.48842118619873    0.09036685710019
H        30.50758127564692    4.55363680714379   -0.00972086453986
H        32.43161844552551    2.67390953641120   -0.08052876527372
H        32.46203971204864   -2.59913174657292    0.03656272877859
H        30.56130042459620   -4.50168662711538   -0.03952135869530
H        27.95294081491776   -4.46826180189231   -0.14453785534351
