259
 energy: -448.333620549877 gnorm: 0.000418572605 xtb: 6.4.1 (bd6e46d)
Zn       51.07466715581865    0.05470935078593   -0.00469182271862
C        53.58366315160411   -3.21354845053372    1.10851267658273
C        54.54333587948117   -2.31453073868586    0.78254367520025
C        53.86362659514539   -1.11399928765124    0.38587945686165
C        54.50985694611631    0.05781150084874   -0.03553981500102
C        53.85381700709475    1.22610178695636   -0.45104194077182
C        54.52407612434356    2.42543667985300   -0.86678242894550
C        53.55712597380424    3.32003788635813   -1.18321249772791
C        52.29896859090400    2.66733875802319   -0.95491097581091
N        52.51108714152702    1.39728862354398   -0.51001488348715
C        51.06232050987406    3.25848690317837   -1.15359083296296
C        49.83114207260967    2.66747667175937   -0.92425624954259
C        48.56267939328852    3.31196466424705   -1.13207230547378
C        47.60912685862710    2.41341717273408   -0.79317533463423
C        48.29419675764466    1.21873461426386   -0.37858183655848
N        49.63739253206026    1.40222676971099   -0.46781191577338
C        47.66695140503310    0.05834788951714    0.04479769916356
C        48.30378055042761   -1.10440000434726    0.44691834343631
C        47.62844398067254   -2.29856387095134    0.87857748199985
C        48.58941915723648   -3.20155598745016    1.18295401308443
C        49.85267881042292   -2.55964349191427    0.93874611436315
N        49.64856475503373   -1.29193843956038    0.49377766448356
C        51.08866335867518   -3.15392371652463    1.13078702654893
C        52.32051094112941   -2.56161741852419    0.90735241417949
N        52.52247756409814   -1.28852279696649    0.46638771578026
H        53.70474142199298   -4.22356071799437    1.44986415563878
H        55.60872430973983   -2.43997857401651    0.79132523834119
H        55.58892034910597    2.55273627614780   -0.89447253697176
H        53.67016098578978    4.32779987462489   -1.53385642667551
H        51.05919437896638    4.27705892453169   -1.51617769108753
H        48.43807283529422    4.31641324475709   -1.48880996266554
H        46.54257928264111    2.53040189602171   -0.81489041981785
H        46.58606992193201    0.05995824376456    0.06194264685063
H        46.56276094993939   -2.41227442918972    0.93396062926701
H        48.47304699789259   -4.20708783917583    1.53943499264381
H        51.09365235731503   -4.17477598922699    1.48688052478863
Zn      116.45882434367068    0.03610331545018   -0.01598327693100
C       113.93652145066783    1.77915269590294    2.95172698747685
C       112.98073580273969    1.28004297676488    2.13152135361035
C       113.66485458959015    0.65899461935652    1.03312386876310
C       113.02261504719475    0.02681479800049   -0.04272335713164
C       113.68445733292128   -0.60044695648709   -1.10926399338263
C       113.02060473481664   -1.22346527758744   -2.21888909667256
C       113.99165739920558   -1.71354543898659   -3.02655526650907
C       115.24626002484850   -1.38409796045425   -2.41153170496485
N       115.02784039461683   -0.70499147330775   -1.25079563570167
C       116.48551600070375   -1.71494222106761   -2.93400002645617
C       117.71411399483407   -1.40040662603269   -2.37782584786001
C       118.98540603011546   -1.75900714386276   -2.94593449430232
C       119.93515802398944   -1.26660766321723   -2.11707534087000
C       119.24490481828117   -0.60620306773139   -1.04197054022190
N       117.90239863154889   -0.70532351993157   -1.22541371887665
C       119.86732814403501    0.03696900665521    0.01544173882504
C       119.22542374341536    0.68140176997065    1.06036751210989
C       119.89547943016667    1.34403286409010    2.14683190856442
C       118.93038844716038    1.83925853816325    2.95606468725484
C       117.66999501159997    1.47951891774200    2.36493510373803
N       117.87974758830082    0.78133595397483    1.21812205412061
C       116.43118357712265    1.79370652543084    2.89806011363055
C       115.20210583337733    1.45624727337719    2.35624587979275
N       115.00527801449176    0.77282221005806    1.19412275175949
H       113.81116598321128    2.31189994381745    3.87464243718501
H       111.91525606678053    1.30824501870210    2.25167513802106
H       111.95702993857682   -1.25970735723814   -2.35348265143640
H       113.88354057719987   -2.24456564030075   -3.95263361327713
H       116.49326134388903   -2.26746359704617   -3.86330935830233
H       119.11432266311559   -2.31255643479680   -3.85623662678708
H       121.00230202159059   -1.33352303841191   -2.20873842272512
H       120.94829250119474    0.03653410967163    0.02573394732043
H       120.96071323979220    1.41046500097911    2.25880256368772
H       119.04219611408580    2.39510728332054    3.86724256184601
H       116.42126657748128    2.34929639870759    3.82552457932024
C        55.91385320113611    0.06110606591242   -0.04084075344873
C        57.12640893355005    0.06208805423678   -0.04183706584517
C        66.80898583054187    0.00363605819209   -0.01664712955373
C        68.02231375821887    0.00781744954394   -0.01288580309775
C        77.70832681410857    0.01049862534369   -0.01639196377310
C        78.92188624147842    0.01615962500147   -0.01997573884159
C        88.60957117224643    0.07001713627912   -0.04364181190089
C        89.82329726671240    0.07232340479293   -0.03852846218594
C        99.51003597278562    0.05480900120880    0.01751366861369
C       100.72330638845096    0.04958155240242    0.01396466455835
C       110.40615921618569    0.02434781841644   -0.05593754614397
C       111.61899198456541    0.02401015771197   -0.05177120859911
Zn       61.96730761746826    0.02821449814421   -0.03179137612935
C        59.45214631547724   -1.93295826602779    2.80190889586151
C        58.49360956010014   -1.38253383980991    2.01816691894755
C        59.17513518442036   -0.67074850064024    0.97486716621800
C        58.52999696625605    0.05470041261359   -0.03817259963920
C        59.18988815271706    0.77215680139632   -1.04717093415840
C        58.52315651146006    1.49833015610785   -2.09008649051596
C        59.49281973858174    2.03283484805902   -2.87114383199776
C        60.74817165624280    1.62868771037393   -2.30551726709123
N        60.53295230698343    0.86627868308545   -1.19702214185316
C        61.98661615199344    1.95527729260752   -2.83111211966855
C        63.21724615725066    1.57293201954240   -2.32549440961874
C        64.47925043240562    1.91308599050560   -2.91726729928211
C        65.43784491256801    1.36294843384105   -2.13347224801856
C        64.75866997879849    0.69349755286038   -1.06140261870773
N        63.41809978905655    0.82600764697816   -1.20338001408169
C        65.40622083489902    0.00663982456048   -0.02210358801862
C        64.74484503473242   -0.67674724352275    1.01059436183168
C        65.40951102312985   -1.36188791471242    2.08182453628664
C        64.43967936851048   -1.90376022252906    2.85750864098655
C        63.18529007558222   -1.54149197564726    2.26262035769108
N        63.40186545682208   -0.79205767513840    1.14516375713153
C        61.94692453393282   -1.90362032685502    2.76427458723315
C        60.71556133101920   -1.55273549232064    2.23768970668129
N        60.51605247223597   -0.78754450031434    1.12816048950311
H        59.32961646561696   -2.53556551489479    3.68116783249130
H        57.42781933719573   -1.43204365826773    2.12943246070741
H        57.45858859014045    1.56800017289812   -2.20245860174046
H        59.38290144766847    2.63983180031609   -3.74904911942948
H        61.99320185927287    2.56153613678397   -3.72639031820519
H        64.60090920665392    2.49101239405300   -3.81305327233224
H        66.50208310656394    1.38518944802204   -2.26398609101528
H        66.47271952123842   -1.40050870395414    2.21684305609924
H        64.54894039104551   -2.48966599157639    3.74970146544623
H        61.94067066135950   -2.51230736185717    3.65790986637707
Zn       72.86508095264155    0.01095883536494   -0.01079630292837
C        70.37405965179576   -2.99156069279308    1.71153232312587
C        69.40948401851989   -2.18437022051391    1.20745871279721
C        70.08034842519315   -1.06923674668573    0.60336996304635
C        69.42500367297949    0.00978639626892   -0.01089906717754
C        70.07943981392775    1.09015817652144   -0.62391938479594
C        69.40806545392878    2.20547959607821   -1.22719711227319
C        70.37237885820063    3.01370054215134   -1.73022317358640
C        71.62993886997893    2.39360835090965   -1.42633262017556
N        71.42111140466859    1.23176084528630   -0.74552421281992
C        72.86405924590954    2.90291303019260   -1.79249030182183
C        74.09820851597341    2.34613638411994   -1.50406101096001
C        75.35502718838158    2.89364664133351   -1.92688825985858
C        76.31962091960406    2.07898370408137   -1.43508742821791
C        75.64962168106860    1.04117460195888   -0.70542993690379
N        74.30802787251024    1.21573183649011   -0.77225628234214
C        76.30571435588607    0.00949480369953   -0.01454484963400
C        75.65068457131720   -1.02181960481953    0.67761282826172
C        76.32153320725961   -2.06085990898609    1.40474613246297
C        75.35724529185833   -2.87395815698785    1.89979412122674
C        74.09985199337521   -2.32464497278096    1.48085746059452
N        74.30901191540772   -1.19458329542386    0.74840377986184
C        72.86585835544355   -2.88037882038066    1.77216612782164
C        71.63137719592723   -2.37117526870667    1.40710052221216
N        71.42202475530901   -1.20989850400216    0.72547274852789
H        70.25920649682993   -3.92025524324060    2.23646201091133
H        68.34620163177807   -2.32337763504577    1.22241353047783
H        68.34472443147884    2.34422479067587   -1.24230470852085
H        70.25729403217242    3.94280503421342   -2.25439616133848
H        72.86397499465954    3.82358445754685   -2.35951622292133
H        75.46958514056320    3.77878575574766   -2.52238513471709
H        77.38228845796081    2.15147741510430   -1.55885148161105
H        77.38463412801815   -2.13548439290551    1.52400789394826
H        75.47215169627025   -3.75937916267967    2.49482190589970
H        72.86623478449690   -3.80074127385576    2.33969177965453
Zn       83.76529634569947    0.04086042511656   -0.04296539983238
C        81.29529633648896   -3.38538041519089    0.54116803526985
C        80.32482664671863   -2.45991811015118    0.34663633141058
C        80.98729908043262   -1.19989892240912    0.16832057303248
C        80.32443166016563    0.02266403114879   -0.02599856538961
C        80.97316689601286    1.25177787561653   -0.22752811935043
C        80.29611276171808    2.50501060486653   -0.39854572962001
C        81.25474230867486    3.43980019532300   -0.60669580809216
C        82.51506654321039    2.75657986153738   -0.55291791525874
N        82.31335715617639    1.43097734855040   -0.30934594542022
C        83.74475809673356    3.36362846592032   -0.74231237551784
C        84.98227783358573    2.74709757993842   -0.67208068614989
C        86.23436611875964    3.41014759519253   -0.89735130380906
C        87.20479541484063    2.48348374360777   -0.70850677366852
C        86.54324666204096    1.25913073854930   -0.36007747068981
N        85.20060976075895    1.43865551113247   -0.35971667397791
C        87.20698164321904    0.06204430730708   -0.04563755257719
C        86.55781938302711   -1.14351953474335    0.26739595689421
C        87.23438868959700   -2.35991762157790    0.61464051797577
C        86.27576810122682   -3.29943190592784    0.79996673490182
C        85.01555255111447   -2.65164790701746    0.57617179157578
N        85.21749103900902   -1.33997033330330    0.26618454482525
C        83.78584442455906   -3.28313361580423    0.65050796966088
C        82.54795840316203   -2.68936250442678    0.47323616907611
N        82.33006248583837   -1.36558903616572    0.23397114861675
H        81.18733019116245   -4.43918259239089    0.71167282368004
H        79.26266888535537   -2.60296426452396    0.31025922866283
H        79.23328249103520    2.63794785507201   -0.34750305842953
H        81.13399084235662    4.49228101025621   -0.77674618222042
H        83.73797479041068    4.42161907549960   -0.96543182173594
H        86.34200593796001    4.44326106854558   -1.16627598632285
H        88.26634801675876    2.59839996791585   -0.80688608726359
H        88.29696353266280   -2.46138247449549    0.71551340440646
H        86.39647701614074   -4.33161857129508    1.06682190708910
H        83.79298400425814   -4.34171803319409    0.87075824758170
Zn       94.66752346064953    0.06482402669875   -0.00194574243596
C        92.17393155275759   -3.35788786888761   -0.50007628172469
C        91.21083740251024   -2.40825674627930   -0.41924536096039
C        91.88129743433291   -1.15839327001901   -0.20376506541454
C        91.22592146401193    0.07176049500568   -0.03062422334111
C        91.88296756221335    1.29944137357788    0.15217685198295
C        91.21406580560193    2.55250341338877    0.35335204477337
C        92.17984112391851    3.49768761099140    0.45284623179751
C        93.43645599015549    2.81811236334347    0.32152667748670
N        93.22517823988160    1.48276176645904    0.14949789442399
C        94.67164664575404    3.44246872652421    0.35320275510723
C        95.90575519747266    2.82290402824974    0.25498379356065
C        97.16458094286590    3.51104838525805    0.27234331606828
C        98.12794254287381    2.56324515926519    0.17348763908095
C        97.45464769356032    1.29816471795906    0.10362029959444
N        96.11300839409887    1.48070354044737    0.14322785059547
C        98.10736951478732    0.05827196972387    0.01701283625761
C        97.45071001862115   -1.17941969546355   -0.07210363761795
C        98.12009754635508   -2.44717392691779   -0.13011210203695
C        97.15444905051919   -3.39176570639014   -0.23676029213573
C        95.89820134462634   -2.69882622895611   -0.23697373643184
N        96.10898701075278   -1.35711494688562   -0.12592008712430
C        94.66345666194290   -3.31378829499592   -0.35329809431741
C        93.43073083471957   -2.68403611249277   -0.34432377202538
N        93.22230588814686   -1.34769668476226   -0.17636896532900
H        92.05844551719987   -4.41335602843759   -0.65451087240375
H        90.14901338586216   -2.52479952505818   -0.51142145914458
H        90.15097914465579    2.67395216880219    0.42277166721586
H        92.06632033901512    4.55381085057796    0.60431740433728
H        94.67250837401549    4.51783850401273    0.46614573832342
H        97.28120440347841    4.57506665804733    0.34649735621157
H        99.19195752360964    2.69271941546092    0.13664774151037
H        99.18307300110349   -2.58048350004139   -0.07981159562022
H        97.26783685559354   -4.45645302841438   -0.30603565411071
H        94.66181219253464   -4.38929993729740   -0.46471205060463
Zn      105.56477772884550    0.03657197259096   -0.02360663140464
C       103.05058186335334   -2.90330115308455   -1.81987770106452
C       102.09222801594845   -2.07706604286044   -1.33527740292181
C       102.77239302203895   -1.01342869941101   -0.65344381275644
C       102.12600893373244    0.04496333745804    0.00456694901940
C       102.78818208744259    1.09927823362134    0.65318176331008
C       102.12420384542510    2.16545249342768    1.34686537174889
C       103.09420759053589    2.98678147740215    1.81638850412192
C       104.34783284452696    2.41632387491378    1.41444335834846
N       104.13087274550664    1.26670803418307    0.71548309150548
C       105.58584043190513    2.96856912934897    1.69474995081209
C       106.81632359689291    2.44083710664707    1.34266573759079
C       108.07870888510109    3.05557851706276    1.63786818634185
C       109.03689632902866    2.23348322803412    1.14591439541369
C       108.35665126709958    1.11561808974398    0.55702202749459
N       107.01616262812016    1.26730456569799    0.67965567510998
C       109.00293535929978    0.02866279790304   -0.05191347325767
C       108.34224405724206   -1.05341539945006   -0.65348058547882
C       109.00760272467136   -2.17165664674991   -1.25838623618226
C       108.03754266829928   -2.98903200390710   -1.73476632442451
C       106.78289343892416   -2.37098840590113   -1.41413452462910
N       106.99911257809627   -1.19958006545723   -0.75261572661850
C       105.54411220699308   -2.89452885105921   -1.74285686824440
C       104.31334762703931   -2.33805630483525   -1.43969053315942
N       104.11312615080284   -1.18726293809358   -0.73765246662397
H       102.92827434022503   -3.80742517959880   -2.38453230209590
H       101.02738330592256   -2.15817847440550   -1.43388174632400
H       101.06146027051854    2.25134631798077    1.46279387035802
H       102.98557665037771    3.89087731498808    2.38387643367115
H       105.59248976080664    3.90139695333079    2.24146509359558
H       108.20089888840117    3.99101384910681    2.14900218134613
H       110.10144988486414    2.36363717944039    1.15965688319004
H       110.07142324194338   -2.30419064439835   -1.29382683080837
H       108.14679153129704   -3.92314324579762   -2.25124720021536
H       105.53727450659055   -3.82718653451886   -2.28988594900496
