190
 energy: -321.120365221064 gnorm: 0.000526168747 xtb: 6.4.1 (bd6e46d)
C        39.14229542127396    3.38042692600820    0.67674803617415
C        40.10810709755125    2.45602101385961    0.51035051881932
C        39.42337529342176    1.21264837511223    0.20419667761368
C        40.09911986521976    0.00041690685718   -0.03414767775617
C        39.46408396347266   -1.22284776588956   -0.30005424284236
C        40.08305090879347   -2.47332327356679   -0.56819391458723
C        39.09088709872134   -3.38679157308928   -0.77858260944538
C        37.84390720425719   -2.71302006509921   -0.64875156244782
N        38.12196422520773   -1.41166553357409   -0.35957539127626
C        36.58285639092342   -3.27152946456924   -0.79593107246113
C        35.35904093144943   -2.62480508103526   -0.69393149084581
C        34.08873530032575   -3.31302764739523   -0.87362769270606
C        33.13066169852337   -2.38199721986181   -0.71111764172941
C        33.82311927177951   -1.13283056887639   -0.43411960255505
N        35.16022193568245   -1.31664832098276   -0.43063553934046
C        33.16472423444274    0.06957802912853   -0.20930951641179
C        33.77609944645616    1.28519638109027    0.05612575910118
C        33.15519743356351    2.54387401352076    0.29914773899600
C        34.14391556876717    3.45715195383336    0.51689951605328
C        35.39424867258710    2.78086957907549    0.41200827471013
N        35.11971230259195    1.47932530577887    0.13328837864413
C        36.65520002918893    3.33631995559005    0.56922605668051
C        37.87936558948002    2.69113744956235    0.47359350414499
N        38.09061847787571    1.38297552340298    0.19326776676753
H        39.23833415386985    4.42232590853438    0.91513281566408
H        41.17208072021530    2.56344152392758    0.59384224322881
H        41.14246399951658   -2.63569618500517   -0.60449663826274
H        39.20172282242837   -4.42900141319561   -1.00674076159476
H        37.43873928608714   -0.67732679984306   -0.21534205332676
H        36.55307655399907   -4.32880080525803   -1.02042131152209
H        33.98710485232380   -4.35894217926833   -1.09192297278974
H        32.06426999065230   -2.48976765273666   -0.76581881818067
H        32.08489465237544    0.05670991074864   -0.24341985781048
H        32.09582370306639    2.71237992220483    0.30459134848520
H        34.03225129638503    4.50244213881592    0.73108443338869
H        35.80080479115819    0.74189998496839   -0.00138806805629
H        36.68661964428271    4.39327659512300    0.79545578086608
C        78.18145700592812   -3.42665177462274   -0.38967846292716
C        77.21960266984355   -2.49037850197876   -0.27455390430922
C        77.91145400093926   -1.22408335466249   -0.11206651950647
C        77.24174793345455    0.00548489667452    0.03727865993765
C        77.88312783315810    1.24693110072562    0.17058956752924
C        77.27171048464419    2.51668814438011    0.35092323923633
C        78.26895993952843    3.44426843691011    0.44140546386837
C        79.51172738247647    2.76074742921481    0.32241065040211
N        79.22609061247415    1.43902543145588    0.16176537334143
C        80.77574583795555    3.33026469440398    0.36448638953126
C        81.99666898621157    2.67775830845276    0.26502246807211
C        83.27048729654865    3.38050411719284    0.32082806508613
C        84.22460167902464    2.43931470933905    0.19845878372632
C        83.52628429641440    1.16944147774862    0.07047624099343
N        82.18957889212513    1.35117082290677    0.11305912430250
C        84.17934984391198   -0.04843133358754   -0.07149885595505
C        83.56178902212372   -1.28363053250020   -0.19329659249061
C        84.17610331192427   -2.55990297486419   -0.34354545892289
C        83.18214007264780   -3.48919883521458   -0.42990266202587
C        81.93505457686899   -2.80546253233501   -0.33446115348831
N        82.21677823563191   -1.48358310086180   -0.19203956838424
C        80.67072655284460   -3.37304191529352   -0.38500724235208
C        79.44897966343426   -2.72169773629483   -0.30058496788709
N        79.24426291011112   -1.39310470239751   -0.13558771562496
H        78.07987416962328   -4.48628908204307   -0.52554704621472
H        76.15355970293685   -2.60489002124294   -0.30652370296233
H        76.21408580191475    2.68255443561408    0.41409358723252
H        78.16435613727577    4.50263882085811    0.58087157593087
H        79.90433945689321    0.69355227052054    0.05618879189810
H        80.81076664273436    4.40341766074945    0.49189741048462
H        83.37695181847234    4.44212751340303    0.43720371955930
H        85.29179999929777    2.55258218263717    0.19182261188705
H        85.25953224499727   -0.03214678988328   -0.08825393289154
H        85.23482990533245   -2.72864675993071   -0.37983149435615
H        83.28809134394513   -4.55012310389169   -0.54904384070942
H        81.54027641731069   -0.73572376628156   -0.09757593034221
H        80.63404165285614   -4.44657125268872   -0.50962029759548
C        41.49970594884844    0.00979307049795   -0.00917394435954
C        42.71295439496286    0.02496401850964    0.00552051266664
C        52.54376868516309   -0.01468212468223    0.04483264573877
C        53.75791245347796    0.00895733916901    0.04230150060491
C        63.59239622041849    0.00842704165061    0.04812147983627
C        64.80622143492313    0.03267610869234    0.05052830609727
C        74.62772213501027   -0.01438322453181    0.06513082375831
C        75.84100487746855   -0.00320465667174    0.05296794306470
C        45.08702124268887   -3.22933775971500    1.12763287630920
C        44.11401460973455   -2.34663295778640    0.82853103805410
C        44.79069446538877   -1.13464631425623    0.40533177183672
C        44.11259424225355    0.03711012250494    0.01781108134686
C        44.76127482107003    1.22284580610161   -0.36292049211618
C        44.16811330190877    2.43948327572195   -0.79063467142648
C        45.18094389977114    3.31024888096209   -1.07515039290060
C        46.41311166341359    2.64166284257460   -0.83182782761522
N        46.10739222249838    1.38716624128601   -0.40111365581414
C        47.68249879292219    3.17065767226973   -1.02070665311042
C        48.90816304754739    2.55450382267194   -0.82709528132763
C        50.16644858989604    3.22614170138380   -1.10394108089575
C        51.13920837040555    2.33958711793878   -0.81614844064224
C        50.46442144905942    1.13899683229092   -0.35970843973523
N        49.13020413572696    1.29369269039752   -0.38282416237566
C        51.14527963943286   -0.02602757282985    0.04718589099288
C        50.49535520973712   -1.20202762686366    0.45756110534530
C        51.08638389780354   -2.40989125362508    0.91133013724628
C        50.07314417257937   -3.27879183732266    1.19978809266954
C        48.84193339356632   -2.61742416855518    0.93344673736744
N        49.14930765093735   -1.36766137545794    0.48943588425712
C        47.57284114180128   -3.15288095925058    1.10449838435178
C        46.34646948328017   -2.54570807000352    0.88641550247192
N        46.12558754354927   -1.28223209689504    0.45111528509527
H        44.99773631353614   -4.23929322513262    1.47918827302026
H        43.04950268770448   -2.46232108951645    0.89148835335662
H        43.11284365063783    2.60910231180805   -0.87768622826337
H        45.09284560791411    4.32012251128381   -1.42584259755276
H        46.76095760151419    0.65417894536213   -0.14798362949306
H        47.71589473230001    4.19204457279907   -1.37528740616517
H        50.25513130091245    4.23067940949828   -1.47079949726181
H        52.20223025665364    2.44519971180683   -0.90838336926320
H        52.14061522695461   -2.57571966190474    1.01357793915682
H        50.16045130363830   -4.28297251531236    1.56663610449651
H        48.49661877494827   -0.63948312788809    0.22060254475596
H        47.53991025559480   -4.17347926730099    1.46142041170135
C        56.15481916117382   -3.41300448673890   -0.15856052456029
C        55.17632620647542   -2.48741491293154   -0.12625127274390
C        55.84362006108280   -1.20301560726601   -0.02649013940038
C        55.15627622023592    0.02560209237794    0.03801385996342
C        55.80042980845206    1.27282670371096    0.09912428916710
C        55.20371860102518    2.55683785930471    0.19431806895190
C        56.21291582400108    3.47636822274490    0.22449775308993
C        57.44710409808508    2.77217598257562    0.15547420562147
N        57.14574500324150    1.44665171848462    0.08167252307400
C        58.71349941244185    3.34034542271074    0.17449915135006
C        59.94327717469636    2.70302215245408    0.14496863178750
C        61.19807327249731    3.43351607840972    0.20161779867865
C        62.17634781794256    2.50757351989526    0.17110868828532
C        61.50774204058250    1.22228952821275    0.09025366865517
N        60.17243286471936    1.36932770432428    0.07879364473672
C        62.19389088349683   -0.00741062546787    0.04489093038094
C        61.55097453788699   -1.25535360253790   -0.00207888129329
C        62.14915310932409   -2.54009840044228   -0.07759188907492
C        61.13999596319315   -3.45957183133876   -0.11378702005206
C        59.90504813799007   -2.75472900927603   -0.06640440940327
N        60.20557764468344   -1.42882282889871    0.00189511567847
C        58.63836841380864   -3.32146026531237   -0.10134938869587
C        57.40893119615468   -2.68302515471075   -0.08443701013441
N        57.17888275350788   -1.34980290976426   -0.00906801692181
H        56.07267772825958   -4.48058841038476   -0.22989160815279
H        54.11378505651049   -2.62099772742757   -0.18071796563637
H        54.14884832739602    2.74023354404836    0.24772870977262
H        56.12094305143031    4.54286129230240    0.29298621410808
H        57.80066072316995    0.67403791025292    0.02800719372236
H        58.74046568051133    4.42027086178073    0.23051510040045
H        61.28089832003583    4.50174850138903    0.26148984622895
H        63.23953218174652    2.64154088587181    0.21434160259492
H        63.20497421274995   -2.72349286765764   -0.11375745931307
H        61.23262687293270   -4.52659877011041   -0.17245498446690
H        59.55028605624725   -0.65574470190924    0.04244128779480
H        58.61081290093414   -4.40133354660314   -0.15820156563377
C        67.17721758102643   -3.09273764156655    1.48950442014263
C        66.20573578400885   -2.23905713263985    1.11183092302813
C        66.88371088477430   -1.08193231470272    0.55732470303757
C        66.20493541416384    0.04433180416434    0.05135618451628
C        66.85279750727558    1.18446056187816   -0.45155422630506
C        66.25837003866440    2.35080129795396   -1.00015574804808
C        67.26964560885791    3.19343053190851   -1.36371810308755
C        68.50259433268324    2.55674830868477   -1.04945038337838
N        68.19845757117018    1.34810421480331   -0.50167109851521
C        69.77130060998668    3.07303029797660   -1.27327902503368
C        70.99694608198489    2.48217405977005   -1.01069147019812
C        72.25712049442177    3.13520394765529   -1.32237366305691
C        73.22882212747645    2.27806033874832   -0.95313699832052
C        72.55062536190589    1.11292386943204   -0.41575670101081
N        71.21603535947409    1.26211914614430   -0.46459005325498
C        73.22790055790529   -0.02035432004249    0.07410550587787
C        72.58033083235676   -1.16163653340253    0.57368541922763
C        73.17599466332544   -2.33069852017451    1.11559949937154
C        72.16496281680335   -3.16917428862817    1.48949620491391
C        70.93140818812653   -2.52823465024824    1.18632100499061
N        71.23449684659570   -1.32117126490911    0.63495073134661
C        69.66253106397043   -3.03888845920843    1.42308144033431
C        68.43721972275172   -2.44615205060674    1.16451632508642
N        68.21781787545677   -1.23139463972394    0.60559824384126
H        67.08664901122415   -4.06015724830946    1.94500717077459
H        65.14162487657337   -2.33958675219250    1.19989588652367
H        65.20328152932724    2.50728877222790   -1.10963331097741
H        67.17990642535632    4.16392586290753   -1.81167712053024
H        68.85386946099742    0.64639904721782   -0.17563532227087
H        69.80470941246432    4.05856547945162   -1.71779519153158
H        72.34756110221794    4.10879543982348   -1.76451975730105
H        74.29318617268542    2.38240350087712   -1.03494784564424
H        74.23181956674573   -2.49089895175294    1.21357339536998
H        72.25519580565170   -4.13970500419846    1.93731029985400
H        70.57819882966839   -0.61747575538973    0.31509715901924
H        69.62916881893750   -4.02165736002587    1.87369761943867
