290
 energy: -501.571365979972 gnorm: 0.000942493449 xtb: 6.4.1 (bd6e46d)
C        42.15514629937473    3.42312161732868    0.18727658835450
C        43.11275646233970    2.47670702891912    0.13792401300706
C        42.41397888261108    1.20725519671713    0.04388625982712
C        43.07744768749245   -0.03437331050504   -0.02694352929877
C        42.42788205593728   -1.27696824842337   -0.11450862652115
C        43.03272024576687   -2.56028556106833   -0.18689795973315
C        42.02926720711336   -3.48286418887252   -0.26196592909107
C        40.79037219599414   -2.78265919177826   -0.23741743965872
N        41.08393804266156   -1.45571728119585   -0.14701446723879
C        39.52294260606711   -3.34298220585567   -0.29610859510878
C        38.30539831683991   -2.67681529525673   -0.27543644008801
C        37.02796963742071   -3.37178158151864   -0.34529741254900
C        36.07876186187008   -2.41880322829013   -0.30073771220090
C        36.78359121635076   -1.14984428529487   -0.20376847410396
N        38.11941212029639   -1.34329064382853   -0.19142907415148
C        36.13727267843273    0.07783042798476   -0.13416873039543
C        36.76206327198705    1.31190196583476   -0.04073686118824
C        36.15589282801636    2.59858870784348    0.03442326831548
C        37.15580555756592    3.52220705252502    0.11345893604681
C        38.39841878640219    2.82427857786539    0.08869124924304
N        38.10833890943442    1.49996491537121   -0.00455635728554
C        39.66618495602783    3.38394668518792    0.14718837191387
C        40.88426592748409    2.72145064118884    0.12227370631378
N        41.08265286047672    1.38397580192337    0.03600584636182
H        42.26162328182372    4.48841798949731    0.25996744820181
H        44.17950533279976    2.58854517701120    0.16111968674102
H        44.09043873417654   -2.73867889353335   -0.18153102523766
H        42.12736603824485   -4.54888541778948   -0.32867707339125
H        40.41080675796570   -0.69903137212930   -0.10972107451236
H        39.48193917055887   -4.42116273859459   -0.36664997041661
H        36.91601525536562   -4.43672768933642   -0.41764051424595
H        35.01103402751085   -2.52354969059470   -0.32808959463472
H        35.05705391416890    0.07085354139901   -0.15419227422661
H        35.09831014431872    2.77792262185001    0.02790489733410
H        37.05670000305027    4.58819172165446    0.18270634676447
H        38.77945830544223    0.74232250272173   -0.04315579906753
H        39.70873288398644    4.46206600136217    0.21944792454503
C       133.87228847168751   -3.41158614453732    0.35669787512998
C       132.91396625238676   -2.46684868723193    0.29140106321328
C       133.61132232377224   -1.20074001102411    0.15264481622974
C       132.94672054691844    0.03810071546868    0.05063012224110
C       133.59474895820637    1.27752018277102   -0.08238340827154
C       132.98834242260867    2.55782523366917   -0.18767560957182
C       133.99037333698161    3.47815950509839   -0.30019520044367
C       135.22990663942213    2.77953678450274   -0.26633773423127
N       134.93816113981899    1.45575813746352   -0.13338970389868
C       136.49638231976076    3.33832925488594   -0.35342207283974
C       137.71439598630542    2.67335052215621   -0.32400054650083
C       138.99087095816313    3.36616748344225   -0.42540608526139
C       139.94083831283749    2.41502616840633   -0.36147862107417
C       139.23740153127704    1.14930519724349   -0.22155613431671
N       137.90168003777922    1.34284414217871   -0.20286545814593
C       139.88483752904358   -0.07581813369050   -0.12302062386993
C       139.26156367391371   -1.30690599000293    0.01103911664192
C       139.86919249884960   -2.59082648612066    0.11596931597606
C       138.87064193681221   -3.51218167085681    0.23072379202060
C       137.62743718808360   -2.81559518068245    0.19893852044058
N       137.91581193331371   -1.49430710347367    0.06582477975857
C       136.36064920397661   -3.37369320151412    0.28655142566832
C       135.14215079540807   -2.71220098608744    0.25680332996931
N       134.94251365004143   -1.37763145551089    0.13543893578627
H       133.76687435502009   -4.47438924738674    0.46069695017413
H       131.84756800232816   -2.57786334985030    0.32967070824463
H       131.93060869452916    2.73584656166126   -0.17726763062970
H       133.89088246506083    4.54165380113388   -0.39794618005050
H       135.61226637128726    0.70091898441739   -0.07978832622077
H       136.53610288004322    4.41394157861258   -0.45645013523651
H       139.10173224639601    4.42858154058741   -0.52960205644925
H       141.00824728794950    2.51911329794397   -0.40118661478251
H       140.96482827419288   -0.06923437227686   -0.15342704434399
H       140.92677448839012   -2.76992321322960    0.10383714440349
H       138.97102826183746   -4.57579854207590    0.32858079569170
H       137.24383339973042   -0.73829560012498    0.01264362493744
H       136.31938320012662   -4.44935716409335    0.38954546759197
C        44.47298815193570   -0.03623420145188   -0.01147790279499
C        45.69343704876743   -0.02753596060895   -0.00151201303827
C        47.02865669547209   -0.01833717704619    0.01046826507353
C        48.25333701867157   -0.00363961557501    0.00895857277978
C        49.58832876588580    0.00753111610749    0.01686620799151
C        50.80898568925182    0.01970334289577    0.02031797668747
C        60.62268415908150   -0.03839412799703    0.01887656069427
C        61.84350690158159   -0.02386800086101    0.01253717515846
C        63.17795861245658   -0.00756924938806    0.00373429466517
C        64.40283993609462    0.01043888776176   -0.00722447594657
C        65.73735359227456    0.02779423941660   -0.01271003176604
C        66.95814946669445    0.04477507415383   -0.01833795032195
C        76.76933987816743   -0.01801860872159    0.00443373131359
C        77.99017223730372   -0.00694280340441    0.00511857230756
C        79.32472507659085    0.00595046849076    0.00554119970347
C        80.54979293398301    0.02099981582803    0.00554257011406
C        81.88434903873716    0.03217930984759    0.00594959753497
C        83.10525778208699    0.04193520034731    0.00632408643123
C        92.92094565940785   -0.02787630928868    0.01418812446368
C        94.14175746834086   -0.01558299035574    0.01498882025000
C        95.47628267952749   -0.00227877721897    0.01475507469993
C        96.70137328911072    0.01668247327439    0.01646371429992
C        98.03590318336789    0.02990206714233    0.01283688487549
C        99.25675630281735    0.03870991578916    0.00695232189678
C       109.06720757242110   -0.02516145696953   -0.00732586895529
C       110.28800766357676   -0.01338940469642   -0.00153484521017
C       111.62250601224858    0.00119657554730    0.00464442568733
C       112.84750171391741    0.01746579547638    0.01423277876207
C       114.18197052837657    0.03276155261164    0.02496700097572
C       115.40269838900898    0.04766755108929    0.03719631063994
C       125.21573256648993   -0.00271272592183    0.14104122014070
C       126.43639680232621    0.00794801134802    0.13842537912011
C       127.77133600579904    0.02001510906661    0.13230562739294
C       128.99613245333686    0.02889291950379    0.12069119264838
C       130.33118643172222    0.03550294311064    0.10047266479133
C       131.55144521650021    0.04036699869971    0.07895861506871
C        53.17295676587084   -3.40203976934482    0.42195664017218
C        52.20086396956932   -2.47538372965031    0.31258868795549
C        52.88029452273534   -1.20150024073972    0.16572085713126
C        52.20322309704833    0.02697555792852    0.02490127158934
C        52.85318579489099    1.26561554840225   -0.11251527008891
C        52.25837157883286    2.54606845932032   -0.25665572690520
C        53.27108489011994    3.45699465234747   -0.35918897566020
C        54.50364012429673    2.75106242402557   -0.27946110960756
N        54.19887495333113    1.43251106592258   -0.13066971354091
C        55.77325171061652    3.30911297791382   -0.34420427612672
C        56.99848736988445    2.66639605643487   -0.27460006688431
C        58.25907555494020    3.38429951691058   -0.36033188063778
C        59.23103446725712    2.45667453923252   -0.25889007927229
C        58.55142906098261    1.18284458953429   -0.11179485101305
N        57.21758537361021    1.33733115769843   -0.12487041891639
C        59.22886109419134   -0.04598869291620    0.02642616637176
C        58.57918219986378   -1.28383892006704    0.17247478342135
C        59.17383803781882   -2.56393409670307    0.32055662290849
C        58.16100121768398   -3.47389817751706    0.42962681452584
C        56.92842202433135   -2.76782654808716    0.34974298593601
N        57.23354175823654   -1.44989624188911    0.19535949394052
C        55.65898350453740   -3.32559240307670    0.41572446896338
C        54.43346140383173   -2.68351837460093    0.34044716796602
N        54.21439767210520   -1.35515457763033    0.18661579602108
H        53.08256136691308   -4.46416931219344    0.54498406189352
H        51.13578524408994   -2.60329420241721    0.32557516523267
H        51.20216925963341    2.73154559052143   -0.27788391671440
H        53.18229143763579    4.51918850815235   -0.47898976003813
H        54.85324597711326    0.66262187983071   -0.04410042965664
H        55.80702524170953    4.38339012469077   -0.46583677784950
H        58.34955939033109    4.44668916776821   -0.48093127734044
H        60.29610216142228    2.58396397436023   -0.27701305381312
H        60.23000378244561   -2.74989769960138    0.33967629267594
H        58.24962375994060   -4.53563243985773    0.55360646823553
H        56.57980670705837   -0.67963072111969    0.10726303513488
H        55.62519684695176   -4.39944334660078    0.54110003492625
C        69.31819224652189   -3.37644400486477    0.39745663514496
C        68.34723373619596   -2.44931325292550    0.28259913316904
C        69.02818995159085   -1.17694924089654    0.12911517548585
C        68.35198499473199    0.05122072627577   -0.02104298590954
C        69.00247290535727    1.28799336688082   -0.17242060856077
C        68.40798516510793    2.56691342743558   -0.33055197411076
C        69.42091673886164    3.47672947581141   -0.44073717767695
C        70.65328565083622    2.77150884756425   -0.35217314585470
N        70.34812272354462    1.45441455030276   -0.19118793827076
C        71.92322552567394    3.32866340683925   -0.41734791058512
C        73.14791184570737    2.68629019722063   -0.33516483869010
C        74.40923028478920    3.40315069475792   -0.41871573391918
C        75.38022250586151    2.47622020250147   -0.30263797033908
C        74.69930608010732    1.20378366439561   -0.14946556307020
N        73.36558267386789    1.35850538588137   -0.17251577416090
C        75.37548892224468   -0.02420013263267    0.00195334415157
C        74.72486348017009   -1.26119291548439    0.15153561874109
C        75.31933739913774   -2.54017781086869    0.30955566560991
C        74.30642822941211   -3.45012485137683    0.41860539716529
C        73.07407217172866   -2.74499473517322    0.32925726564742
N        73.37924870139214   -1.42779708638585    0.16876898732453
C        71.80422987254153   -3.30224021361302    0.39436663684144
C        70.57949226870464   -2.65979818118255    0.31277519599823
N        70.36193409653444   -1.33202556466320    0.15008130300967
H        69.22650096531538   -4.43771997748908    0.52660487420056
H        67.28202539408612   -2.57607506725820    0.29587115862035
H        67.35180317388989    2.75227420854657   -0.35484889552353
H        69.33229149306030    4.53768602484013   -0.57113981558525
H        71.00283809756544    0.68593937835216   -0.09568049843974
H        71.95784487251883    4.40175886390019   -0.54873979023204
H        74.50084462136493    4.46445640197570   -0.54772959481482
H        76.44544424729106    2.60310779114124   -0.31462634895727
H        76.37549894246030   -2.72545596810170    0.33475674517477
H        74.39497684665851   -4.51111341315611    0.54881620055130
H        72.72454529115925   -0.65933282064505    0.07309375293526
H        71.76965147601075   -4.37534921356378    0.52565362517681
C        85.46581157660439   -3.38183587970108    0.41099957092162
C        84.49454072807447   -2.45414927669296    0.30329722617666
C        85.17513023899373   -1.18163056926579    0.14991253727108
C        84.49908090722590    0.04710065439985    0.00404791955473
C        85.15082498320191    1.28351470613940   -0.14557012170330
C        84.55831878360316    2.56402102095259   -0.29812061953647
C        85.57274381485328    3.47194373798869   -0.41007446318941
C        86.80405323786124    2.76399381783519   -0.32806885310751
N        86.49675267089437    1.44721594402961   -0.16858755421049
C        88.07443768300541    3.31947493444900   -0.39819757327979
C        89.29917420288186    2.67647493725489   -0.32145139662904
C        90.56031656919509    3.39310642365255   -0.40954678075667
C        91.53162279644134    2.46623048836357   -0.29537188707300
C        90.85107096082331    1.19401006661313   -0.13945121013723
N        89.51724269039087    1.34879497497747   -0.15891004840453
C        91.52713903445607   -0.03422697837053    0.01050771313524
C        90.87540596875385   -1.27106616494937    0.15660434874699
C        91.46790823859193   -2.55182177974919    0.30705294711099
C        90.45346217051733   -3.46044953447938    0.41297416565072
C        89.22213331359407   -2.75265291780334    0.32977714343971
N        89.52946221654936   -1.43530435386267    0.17518342665509
C        87.95173818440233   -3.30860635807851    0.39633460367651
C        86.72698343953675   -2.66525711628607    0.32265928080866
N        86.50894590527527   -1.33695011917553    0.16535226962417
H        85.37445854574661   -4.44345124021191    0.53762716452836
H        83.42934454598287   -2.58058886540045    0.32130821905584
H        83.50245838175998    2.75167262909865   -0.31779378120343
H        85.48589335051031    4.53341648904808   -0.53744624308523
H        87.14915825884883    0.67607059827814   -0.07781620560019
H        88.10945685316172    4.39267686350032   -0.52880421219006
H        90.65163737371549    4.45424069280172   -0.54014695578796
H        92.59682044251034    2.59301016784219   -0.31101846180980
H        92.52377313836097   -2.73918862574765    0.32927401896350
H        90.54029563764426   -4.52230489746139    0.53712165331084
H        88.87717799598288   -0.66407668708151    0.08420559969266
H        87.91674741195557   -4.38229989734997    0.52281976456068
C       101.61731674792850   -3.38364101777431    0.40882513218905
C       100.64627673176335   -2.45561052053974    0.30241795346308
C       101.32710866005155   -1.18350948100321    0.14597008667421
C       100.65060184545342    0.04500854195895    0.00053612762279
C       101.30072572763973    1.28175660039550   -0.15313139811693
C       100.70581084909480    2.56109742593170   -0.30653856617405
C       101.71836043953496    3.47040941814612   -0.42390377165462
C       102.95095146441399    2.76457925832674   -0.34405763615168
N       102.64626413808725    1.44762736963559   -0.18061244679220
C       104.22063385842831    3.32094253626083   -0.41917496481498
C       105.44548422618601    2.67789275243529   -0.34417357866415
C       106.70671888576143    3.39381738177121   -0.43601823420696
C       107.67777229384791    2.46670418818764   -0.32181200591807
C       106.99690619476489    1.19502251206683   -0.16237693276035
N       105.66315605555306    1.35037315319085   -0.17951923706387
C       107.67337437519613   -0.03272613412269   -0.01064296800412
C       107.02330734927537   -1.26993285390935    0.13960286815348
C       107.61828846529578   -2.54919508964826    0.29315664796795
C       106.60572795996114   -3.45947811108823    0.40296436229763
C       105.37310916746156   -2.75415331163527    0.31932980913999
N       105.67773561346456   -1.43666351916596    0.16051949198536
C       104.10333476761326   -3.31112515865831    0.38906245209153
C       102.87856642674240   -2.66772199919087    0.31661240147962
N       102.66081675804699   -1.33936476062679    0.15861694997579
H       101.52579587647189   -4.44510658481985    0.53658292310288
H        99.58105113586149   -2.58155178717464    0.32286133454019
H        99.64959979902137    2.74701708404111   -0.32342734124585
H       101.62940764758457    4.53141910921358   -0.55361153959407
H       103.30142847234264    0.67893762800179   -0.09015089197545
H       104.25498499275223    4.39385611300593   -0.55207793264738
H       106.79828621650606    4.45467378700618   -0.56872127746339
H       108.74299001995094    2.59294995611598   -0.33959333731424
H       108.67452628253585   -2.73447442689979    0.31471418231992
H       106.69476186588489   -4.52077869457642    0.53022649471014
H       105.02249450247064   -0.66822270831852    0.06853767304025
H       104.06893838732194   -4.38453750770413    0.51787307170300
C       117.76455718660864   -3.36620503406290    0.50366142662107
C       116.79307457381013   -2.44177278446783    0.37276537949025
C       117.47321218949131   -1.16925043712087    0.21696789834799
C       116.79644644279878    0.05657100955424    0.05140920541894
C       117.44668724086448    1.29353656956206   -0.09953742520282
C       116.85257086535672    2.57107292770427   -0.27008022233109
C       117.86572318319848    3.48119187145092   -0.37491780371906
C       119.09793259289079    2.77768879106938   -0.27043150321440
N       118.79230176521511    1.46117883863083   -0.10532705352286
C       120.36753804378931    3.33613873588845   -0.32757953315360
C       121.59272031254085    2.69613020498981   -0.23217241823895
C       122.85349839065412    3.41434799877282   -0.31184014901485
C       123.82511937069631    2.48956018806277   -0.18406066700996
C       123.14512995504769    1.21711731464069   -0.02763089740631
N       121.81115326549526    1.36991402773362   -0.05970938466872
C       123.82159530163705   -0.00906068614459    0.13496299232542
C       123.17103924152909   -1.24538019847016    0.28947024750764
C       123.76529173195077   -2.52275905694533    0.46056215932925
C       122.75224147787034   -3.43268131900988    0.56846030981901
C       121.52002630378654   -2.72915632512466    0.46530201675012
N       121.82532916986678   -1.41288043478664    0.29852301686991
C       120.25026902169787   -3.28760456648234    0.52328520636451
C       119.02538734649281   -2.64777277265644    0.42627940505125
N       118.80691081428411   -1.32149489578295    0.25273853464941
H       117.67361046840581   -4.42677126251078    0.63912364751199
H       115.72800241416837   -2.57043271373267    0.37639258168990
H       115.79653515884651    2.75533501500213   -0.30596888030410
H       117.77756324276919    4.54137402538552   -0.51182074471259
H       119.44564360499686    0.69284423957957    0.00072243032529
H       120.40170130315111    4.40852827850964   -0.46482020414519
H       122.94439933510733    4.47496120617172   -0.44700665060380
H       124.89021737891242    2.61791615615071   -0.19028742846673
H       124.82138694113075   -2.70703347318034    0.49466250915003
H       122.84058780819667   -4.49271020839148    0.70640132832590
H       121.17133676437770   -0.64507948983800    0.19274217808658
H       120.21608021278857   -4.35989234609519    0.66125433587114
