119
 energy: -214.902115856974 gnorm: 0.000787373312 xtb: 6.4.1 (bd6e46d)
Fe       11.74428189687459   -0.00261082239963   -0.00973073480978
C        14.24362444291353   -3.39207199908208    0.02662242155472
C        15.23547902692475   -2.47079523515838    0.01691616190272
C        14.59427979998085   -1.19180830686381    0.00087200751816
C        15.26984922282324    0.03252478657793   -0.01358248211634
C        14.57004848363190    1.24308543392651   -0.02165986711333
C        15.18567778732254    2.53464476299737   -0.02972701758328
C        14.17573056828000    3.43612180653515   -0.02628201175603
C        12.95093337429724    2.68919832236453   -0.01754595515570
N        13.21331118568244    1.34426433179132   -0.01578595742968
C        11.70909486323910    3.29366771248574   -0.01179538064892
C        10.48132610946707    2.66157445885204   -0.01073494802488
C         9.23789002469615    3.38151544028318   -0.01063675248161
C         8.25041104138832    2.45823512040565   -0.01842310106486
C         8.89347364187793    1.17625352997992   -0.02165019225041
N        10.25121613103681    1.31367209009925   -0.01589379590644
C         8.23580422940395   -0.03765266310051   -0.02917742606588
C         8.91756154934105   -1.23820583641414   -0.02435003318465
C         8.30026765984883   -2.53280242932185   -0.02510971597057
C         9.30593383753794   -3.43615494953562   -0.01043571295762
C        10.53465617520992   -2.69145659122933   -0.00224969362756
N        10.27774904505761   -1.34845668534471   -0.01192137286499
C        11.77471461518247   -3.29886326629550    0.01332980028750
C        13.00422181820857   -2.66973048434927    0.01510727470666
N        13.23983816774515   -1.31989233678214    0.00085984294252
H        14.32423391328551   -4.46184647714064    0.03971257834238
H        16.29766447615339   -2.62067278166960    0.02036247912768
H        16.24471553622389    2.70547900376361   -0.03619033020158
H        14.23501778067153    4.50737640330249   -0.02957124046635
H        11.69821882689620    4.37448779437669   -0.01038051111570
H         9.15621449967200    4.45149918624522   -0.00586354650451
H         7.18802089115464    2.60769080562014   -0.02126603676477
H         7.15692214897223   -0.04841907331111   -0.03668162770687
H         7.24112908202241   -2.70348773408977   -0.03485361667975
H         9.24568960672497   -4.50757043514150   -0.00570368128032
H        11.78540740740429   -4.37963879486388    0.02297081401546
Fe       44.10649345924332    0.02668454636918   -0.00736695544334
C        41.62010630644644    3.37108642958675    0.60051414406354
C        40.62477575765997    2.46818556724529    0.43715584779264
C        41.26111118878275    1.20751109930158    0.20687774485127
C        40.58085220538179    0.00531306853844   -0.01053230168480
C        41.27591481899918   -1.18902958608493   -0.22430527257529
C        40.65531523353289   -2.45780375494293   -0.45293823163691
C        41.66181631089910   -3.34928108944885   -0.61050165487013
C        42.88948269246022   -2.61905475825342   -0.47754767241795
N        42.63226914368184   -1.29400332529992   -0.24130874502879
C        44.12896459646510   -3.21938734031053   -0.58140581304288
C        45.35914020543332   -2.60168053100052   -0.47170994253433
C        46.59974477407742   -3.31545830623324   -0.59749301925640
C        47.59080603099520   -2.40926825300745   -0.44179684431274
C        46.95272483785590   -1.14396453574644   -0.22073221624786
N        45.59444035866944   -1.27467460160230   -0.24047115694088
C        47.61509929903662    0.04991344603514   -0.01564012703485
C        46.93797553412652    1.23457546815321    0.19460682960243
C        47.56029106613811    2.50760368229046    0.41629697295153
C        46.55809587288358    3.39981323025871    0.58114270004349
C        45.32645190644798    2.67005420580320    0.45894130142501
N        45.57818676620350    1.34708031259741    0.22199671389215
C        44.08871092453504    3.27148975784851    0.57393676066698
C        42.85678207868094    2.65610548898215    0.46809655378899
N        42.61606605494113    1.32870200612493    0.22773073205288
H        41.54359832404412    4.42386640928544    0.79251517609107
H        39.56313464679566    2.61925516634468    0.46634390930655
H        39.59565514969650   -2.62166852658664   -0.48454466750805
H        41.59840959948492   -4.40345421995448   -0.79966296986426
H        44.13566167576553   -4.28380341249560   -0.76916540696698
H        46.67721984789163   -4.36995148933802   -0.78082309000751
H        48.65260697790056   -2.56025725881327   -0.46982838869964
H        48.69403151320210    0.05717087733863   -0.01888064501455
H        48.62011103724537    2.67270935637177    0.43888730683822
H        46.62250982893548    4.45456148830581    0.76804779678577
H        44.08219470978855    4.33521956629581    0.76555980184423
C        16.66523622546444    0.04534645193978   -0.01586210551086
C        17.88476112697568    0.04638112776423   -0.01896669976046
C        19.22126055015176    0.05152171692040   -0.01797495390274
C        20.44518785534413    0.05155599198479   -0.01479625833742
C        21.78154374349637    0.05007681526428   -0.01130546536339
C        23.00119602878160    0.04433205472456   -0.00549350546340
C        32.84941879591064   -0.00764294718614   -0.01074721543923
C        34.06904701865241   -0.01463688230684   -0.01651445391615
C        35.40547252217100   -0.01493002475387   -0.01189935293957
C        36.62933371736074   -0.01669628308061   -0.02139465857951
C        37.96589005518125   -0.01146419221775   -0.01523139981918
C        39.18534489349382   -0.00231449286066   -0.01514923558140
Fe       27.92526133384633    0.01869950098767   -0.00438952790390
C        25.43994536992429   -3.36303085791381    0.35611910894134
C        24.44335135591420   -2.45153157225997    0.26172293035403
C        25.07813209759804   -1.17656232356313    0.12553420604956
C        24.39596459489494    0.03776972026949   -0.00370458454074
C        25.09102354643100    1.24479831668540   -0.13246794179324
C        24.46999110399722    2.52628201122074   -0.27069418975467
C        25.47635544323439    3.42685502773385   -0.36665020078843
C        26.70368973769903    2.68911586329597   -0.28596431141717
N        26.44669870244067    1.35050484963141   -0.14303587289726
C        27.94287597033180    3.29521322385550   -0.34784553471524
C        29.17544924377579    2.67637378310877   -0.28075802262158
C        30.41071657981963    3.40155079699794   -0.35446180402295
C        31.40729140920638    2.49007246822199   -0.25979403714522
C        30.77245654066252    1.21449992525215   -0.12944599183159
N        29.41800840249767    1.33462435981095   -0.14196896533257
C        31.45457492261381   -0.00081034685792   -0.00988348799787
C        30.75955249679864   -1.20855166643311    0.11164179933814
C        31.38059812878916   -2.49127619715451    0.23776937283280
C        30.37424442209038   -3.39175359184962    0.33481616111757
C        29.14691119673578   -2.65273028589753    0.26644740186050
N        29.40386499802263   -1.31357358502424    0.12876439149707
C        27.90773811937114   -3.25804140305937    0.33593235503684
C        26.67518234860302   -2.63839796005127    0.27671146617056
N        26.43257465776216   -1.29684269302553    0.13606716199123
H        25.36508280176114   -4.42739565677971    0.46834780536315
H        23.38193700524562   -2.60562108869777    0.27989198710758
H        23.41029732052225    2.69166732798152   -0.28954508116340
H        25.41295283497789    4.49169605327169   -0.48151214358393
H        27.94865326270817    4.37016473117599   -0.46129456354524
H        30.48562313289255    4.46613469184655   -0.46439023950974
H        32.46871490768920    2.64439893145467   -0.27523583694024
H        32.44031756032541   -2.65748260671386    0.24856232784129
H        30.43763872560042   -4.45736236272963    0.44231228174632
H        27.90196293899080   -4.33315763508897    0.44782217544521
