304
 energy: -515.736802027768 gnorm: 0.000474825265 xtb: 6.4.1 (bd6e46d)
C        66.54482589333531    3.38834016652592    0.60273790163516
C        67.51857115505092    2.46825428677687    0.46016013998271
C        66.84448188195087    1.21074605258796    0.19073973268159
C        67.53006375856801   -0.00217983775606   -0.01397779586159
C        66.90323262777243   -1.23769355744659   -0.24024817749409
C        67.52956907381308   -2.49198419880525   -0.47022909616737
C        66.54269263069513   -3.41824812594426   -0.64671902060189
C        65.29165553960740   -2.74875343532359   -0.53455823839252
N        65.56213286916615   -1.43692358491628   -0.28898453765532
C        64.03447880495918   -3.32105793647915   -0.66040760025540
C        62.80552410398636   -2.68114320551880   -0.57988160543648
C        61.54100745633000   -3.38529712516520   -0.73758421480132
C        60.57524975845313   -2.45694840820774   -0.60866326095150
C        61.25724892162143   -1.19370238525426   -0.37280177571010
N        62.59579131613528   -1.36655482976778   -0.36113026510840
C        60.58943986298230    0.01037936941818   -0.18822681880152
C        61.19235772193488    1.23750832661241    0.04116155201060
C        60.56366709197556    2.49899892045822    0.24640309685546
C        61.54671926296880    3.42379348120229    0.43981459566137
C        62.80125881755189    2.75214841842975    0.35650494493592
N        62.53471937562814    1.44159112629842    0.11490093742623
C        64.05832292722691    3.32032259285358    0.49892580470153
C        65.28768106752062    2.68258969431721    0.42111707182067
N        65.51017751310913    1.36895417166852    0.17762676024231
H        66.63194059950668    4.43732150522449    0.81169331846565
H        68.58170072961452    2.58735011923904    0.53843482009245
H        68.58982444734447   -2.64867600699925   -0.50572720155849
H        66.65962535448604   -4.46663331293736   -0.84101274600749
H        64.87620168499042   -0.70117769625255   -0.16577072457322
H        64.01273458265977   -4.38552544125537   -0.84905301049009
H        61.44808895450285   -4.43884227631217   -0.92014445222436
H        59.50985737861900   -2.57505409392606   -0.66137863543650
H        59.50983737091308   -0.01116709142335   -0.22436142694532
H        59.50333465174629    2.66144965142981    0.24497007995212
H        61.42856801383785    4.47411115248936    0.62380600662193
H        63.21926343469012    0.70352022749699    0.00272319963747
H        64.08176200538155    4.38345302064501    0.69536573132017
C       138.79622191498925   -3.42748463844181   -0.17836583184465
C       137.82802459721211   -2.49176807746692   -0.13255371103604
C       138.51135444536808   -1.21241891947886   -0.06299531115625
C       137.83383190973120    0.02066981730161   -0.00799580695197
C       138.46786031053361    1.27236424117630    0.03022396036814
C       137.84905088757910    2.54888840097509    0.10906306399632
C       138.84120108449079    3.48599342326723    0.13161928802794
C       140.08811207934684    2.80210686874874    0.07200732949475
N       139.80991211080672    1.47045600677010    0.01209275399558
C       141.34875260480058    3.38056351810164    0.07985118749765
C       142.57424554540950    2.73002743762314    0.04323874905807
C       143.84355587358345    3.44291888958010    0.06133418991625
C       144.80414998775976    2.50114969020302    0.02276256283450
C       144.11423605249834    1.22096990287667   -0.01847879135250
N       142.77612969284587    1.39704108106135   -0.00587004841354
C       144.77508299717294   -0.00014474263885   -0.06338315531245
C       144.16465970096095   -1.24422335586036   -0.10323070432468
C       144.78612325026992   -2.52472518003202   -0.15664676222080
C       143.79714531506127   -3.46279159662531   -0.18709000279746
C       142.54608124569091   -2.78045028933792   -0.15203826970389
N       142.82056897171469   -1.45040114132507   -0.10128828329330
C       141.28513048444458   -3.35746308139824   -0.17088874020260
C       140.05902505186319   -2.70960257591015   -0.13877617238427
N       139.84532147674398   -1.37390619048772   -0.07182698107227
H       138.70176533267568   -4.49486384498663   -0.23653285480511
H       136.76275192694104   -2.61531398771154   -0.15667940843281
H       136.79024875134874    2.71329520890259    0.15425414278157
H       138.73071967999181    4.55140101197589    0.18839884565683
H       140.49135964556976    0.72173212611067   -0.03270971564761
H       141.37679827803885    4.46054298545478    0.12449299909817
H       143.94296323700928    4.51092788802155    0.09871538085085
H       145.87074029737465    2.62025364954000    0.02151789841924
H       145.85529335350216    0.02097579207935   -0.06874362707160
H       145.84589500563774   -2.69023155996060   -0.17038165366265
H       143.90894395838711   -4.52892158530942   -0.22995872307717
H       142.14063016101360   -0.70046538963609   -0.06654404592232
H       141.25541109282165   -4.43736384351435   -0.21876857950799
C        68.93059738305783    0.01813686835148    0.00454851787588
C        70.14389175320935    0.03984938452005    0.01293032024822
C        79.97573946199917    0.03454248299265   -0.00309358500671
C        81.18958095672808    0.05786253340688   -0.00681661895166
C        91.02959091370995    0.01715898758004   -0.01358453132894
C        92.24366891129004    0.03443348438263   -0.01835658342608
C       102.07519077408224    0.00745375344880   -0.05700342271574
C       103.28889190714712    0.02437824858399   -0.05707661001862
C       113.11701837730625   -0.02323215546128    0.10393338159080
C       114.33108369274086   -0.00489804834742    0.11575552055484
C       124.17102114487523   -0.03468555232085    0.07394225563215
C       125.38511814761927   -0.01527649497851    0.06263847567177
C       135.21992801117577   -0.01629365220337    0.02635439468110
C       136.43303085359307    0.00497335722726    0.00980695995043
C        72.53769247058277   -3.18700979643920    1.17294795518941
C        71.55956443273416   -2.31079092754138    0.87150380886392
C        72.22874387904677   -1.10528108112413    0.41896275114625
C        71.54354399790138    0.05735258670251    0.01610788120772
C        72.18581951926726    1.23803921686112   -0.39032197583805
C        71.58640310415623    2.44597892462148   -0.83354377456971
C        72.59488556973528    3.31500839429261   -1.13799447871760
C        73.83068670887756    2.65415425772407   -0.89141796885992
N        73.53126697466695    1.40541353628597   -0.44002639966920
C        75.09711106800661    3.18639352172798   -1.09103662691163
C        76.32650662007921    2.58022845876015   -0.88888414996870
C        77.58145186569354    3.25834583977461   -1.16633194136832
C        78.55952010622728    2.38159300497557   -0.86646256500605
C        77.89070507815427    1.17920728083957   -0.40530923122179
N        76.55546629493882    1.32499133563815   -0.43322680336569
C        78.57694706903463    0.01868379886950    0.00363481494906
C        77.93423989048904   -1.15856473411449    0.42081711780852
C        78.53299284761854   -2.36176498134279    0.87731378421102
C        77.52448588397431   -3.23062125889174    1.18220405084614
C        76.28898173891655   -2.57418686123806    0.92296201631728
N        76.58896099268527   -1.32757215682892    0.46542253114626
C        75.02262701326141   -3.10908918101702    1.11473700454968
C        73.79291423831924   -2.50577448031726    0.90441324663835
N        73.56440614226014   -1.24974902202199    0.45170581422131
H        72.45461922168028   -4.19086988668141    1.54299864725244
H        70.49617394887125   -2.42650433838868    0.95080596041425
H        70.53014787958378    2.61149252971841   -0.91630704210683
H        72.50149843244708    4.31914853976786   -1.50346600049989
H        74.18737010809147    0.67727442091998   -0.17930788436232
H        75.12461184806386    4.20301757450149   -1.45954697142232
H        77.66424033239859    4.26063727642788   -1.54065555785128
H        79.62263907384707    2.49501379794606   -0.95127378288563
H        79.58884322279896   -2.52423561397618    0.96963905188696
H        77.61770220490300   -4.23163163913145    1.55622132554219
H        75.93275465837954   -0.60251998142652    0.19655380492983
H        74.99498125357312   -4.12539498634603    1.48414437270099
C        83.57293513386142   -3.34877046696308   -0.45482667640718
C        82.59750781318017   -2.42552061088149   -0.34737834163080
C        83.27015621531562   -1.15351823332186   -0.16072440178129
C        82.58830190811237    0.07025525289016   -0.01010280567454
C        83.23719995520234    1.30672090587678    0.14203054599993
C        82.64617479168203    2.58313920562287    0.33074778974653
C        83.66053515313101    3.49035721568549    0.44578204848931
C        84.89172710974243    2.78591449528945    0.33398111281341
N        84.58361865609892    1.47279644674514    0.15027044693419
C        86.16120825352665    3.34205207595452    0.41353942589002
C        87.38856038385909    2.70387261194313    0.33589220025933
C        88.64556887253426    3.42179496121546    0.46299778983154
C        89.62120017407955    2.49968197808493    0.34806501747535
C        88.94908375414295    1.22945530372280    0.14824448044079
N        87.61411307806094    1.38098144223999    0.14942939207212
C        89.63095106590254    0.00680731244224   -0.01230861926638
C        88.98130382467745   -1.22882223164348   -0.16941913730997
C        89.57203608187828   -2.50468355797423   -0.36264180589058
C        88.55781384277832   -3.41298264508482   -0.46954269026561
C        87.32685364660445   -2.70954871053893   -0.34955207209989
N        87.63504517026669   -1.39579545973057   -0.17005267334307
C        86.05757645253968   -3.26746564575860   -0.41753357503486
C        84.83017494823747   -2.62955978847133   -0.33810868839622
N        84.60513853374836   -1.30513006920174   -0.16273819282713
H        83.48671304694193   -4.40818927648801   -0.60230593846127
H        81.53388735856679   -2.55223216566005   -0.40096712088823
H        81.59136732504756    2.76839214349431    0.38398240153503
H        83.57392987445317    4.54855916282109    0.59845281127128
H        85.23353616659206    0.70157316024990    0.04190019826887
H        86.19323612921907    4.41278490024531    0.56423718701661
H        88.73143844889712    4.47965422067575    0.62151229326076
H        90.68464521498454    2.62607332840400    0.40515161381373
H        90.62652331294206   -2.68879360277018   -0.42438064667394
H        88.64422515605486   -4.47124187602789   -0.62185613926066
H        86.98507498839028   -0.62527288827397   -0.05706665802200
H        86.02564736887369   -4.33920392980105   -0.56083219713271
C        94.63415764888252   -3.22615720228858    1.05602870482576
C        93.65701844724197   -2.33866888453496    0.78584939386200
C        94.32667363810434   -1.12558941584582    0.35532257494321
C        93.64235641489543    0.04697846694117   -0.02181635726968
C        94.28795595814461    1.23472043243646   -0.40397853331924
C        93.69124847442632    2.45160902834565   -0.82513088473535
C        94.70102196161028    3.32936435361020   -1.09874218700496
C        95.93528044321855    2.66466755117356   -0.85573205473311
N        95.63344414671042    1.40426920102831   -0.43908175791068
C        97.20209720340951    3.20645065681364   -1.02496265460101
C        98.43125613443203    2.59642244470341   -0.83334127217246
C        99.68747522095337    3.28643965885725   -1.07305981768576
C       100.66435610207303    2.39774229324092   -0.80584607807710
C        99.99319368890117    1.17601646930445   -0.40245389079301
N        98.65806737410684    1.32342078825674   -0.42915204102675
C       100.67623893730020   -0.00459577925367   -0.05087841640556
C       100.03183419546248   -1.19846550655249    0.31216222711660
C       100.62988573285527   -2.42385068656751    0.70648585628525
C        99.62022943196224   -3.29951840535414    0.98742176776264
C        98.38525092804019   -2.62572189654820    0.77409861249436
N        98.68630181339772   -1.36269161624643    0.36520351790027
C        97.11835908433898   -3.15991374018788    0.96543321252272
C        95.88950651256849   -2.54391710890627    0.79125349435224
N        95.66168866683721   -1.27525742861100    0.37364257175339
H        94.55025751869616   -4.23832999468814    1.40249733587867
H        92.59414605452633   -2.45170160698516    0.87383425790134
H        92.63583601753666    2.61690956103405   -0.91657123543493
H        94.60956508786971    4.34162288776962   -1.44152562681147
H        96.28843005775204    0.67070996452623   -0.19113793709762
H        97.22994639680195    4.23505174653620   -1.35855470097895
H        99.77214567578375    4.30413541458276   -1.40274976591250
H       101.72802551119091    2.51556527033779   -0.87840877235625
H       101.68616947274373   -2.59573627193093    0.77497071376259
H        99.71230773496374   -4.31643119155163    1.31605198986446
H        98.03123703567411   -0.62334468293327    0.13533441074455
H        97.09014637835098   -4.18805939671000    1.30050083597168
C       105.67724334638081   -3.31423448576185   -0.85171791447292
C       104.70036017880480   -2.40892907466704   -0.64789902064043
C       105.37124727731076   -1.16581311189597   -0.31542450994256
C       104.68782053884897    0.03590870300429   -0.04549258738037
C       105.33140714039499    1.25055302699154    0.24220442958794
C       104.73231035555605    2.50089289948274    0.54628769021397
C       105.74098917466276    3.39131725937360    0.78044528652852
C       106.97634559953073    2.70190366718353    0.62854736260224
N       106.67664578622390    1.41534706073463    0.29985745781221
C       108.24246339469602    3.24247597883570    0.80619043987036
C       109.47048296129192    2.61052075379275    0.69533414932969
C       110.72435403393382    3.30154186253037    0.94334282598537
C       111.70106683772916    2.39418220194950    0.74830178759368
C       111.03282004963263    1.16046234406619    0.37866989438610
N       109.69866413727512    1.31715998420102    0.36189177936249
C       111.71862049842932   -0.03464962796744    0.08338288177276
C       111.07475902038807   -1.24120907004735   -0.23816871521789
C       111.67291356779657   -2.48277276510845   -0.57712974296784
C       110.66391980105573   -3.37224881506127   -0.81346973427687
C       109.42880076003641   -2.69057700525349   -0.62916014919506
N       109.72929613454806   -1.40845845715624   -0.28392761002298
C       108.16223314045986   -3.23764406729525   -0.78273479858408
C       106.93312612045763   -2.61356777664883   -0.64300375509158
N       106.70614091987235   -1.31732916725302   -0.32095595115481
H       105.59291405440635   -4.35018438222346   -1.11863965341581
H       103.63699744358208   -2.52875776492492   -0.72211498422902
H       103.67585800911991    2.67947999962795    0.58998705120114
H       105.64787061327749    4.42812311361914    1.03917062523443
H       107.33303011574721    0.66167360649196    0.12760908398432
H       108.27062841771752    4.28984517785492    1.07512519211845
H       110.80752611750495    4.33256407764811    1.22905783527940
H       112.76248781992808    2.50663925928126    0.85215357897895
H       112.72887354091202   -2.65668818464235   -0.64225975986300
H       110.75667876638164   -4.40345695888003   -1.09377030800557
H       109.07326303233393   -0.65960313028840   -0.09056250828786
H       108.13461876761589   -4.28442784929584   -1.05401946593182
C       116.72186563837622   -3.38638871917001    0.70945024105135
C       115.74485195118514   -2.46735984565789    0.58186039685258
C       116.41405376723615   -1.20475273972621    0.33076276732671
C       115.72947829818752    0.00934126177787    0.12298895207290
C       116.37697850253186    1.23908773363498   -0.08257098491607
C       115.78450882524594    2.50685351835687   -0.31861538184580
C       116.79711987241083    3.41416755246722   -0.44714183019668
C       118.02893398606926    2.71775916098373   -0.29913431173186
N       117.72286549493890    1.40869791549585   -0.08503445389923
C       119.29706073961513    3.27961824088780   -0.35508032834902
C       120.52514256849015    2.64811207844589   -0.24262510549213
C       121.78069351652523    3.37736402791939   -0.29787439620745
C       122.75772096897995    2.45810671548423   -0.17240176265554
C       122.08803715152362    1.17707746082162   -0.04851306677775
N       120.75280649295765    1.32196060285248   -0.08373570185636
C       122.77255982580718   -0.04720215699226    0.08778787077258
C       122.12457902339307   -1.28441890688945    0.24071624772849
C       122.71599144346916   -2.56866372880120    0.36217316823776
C       121.70322652927267   -3.47368045888346    0.50541388473610
C       120.47227517989239   -2.76122460241324    0.46817654860432
N       120.77891880276299   -1.44541769629376    0.30178815338228
C       119.20459049584520   -3.31368301791751    0.59136607479217
C       117.97685425322607   -2.67374762628624    0.54008150689980
N       117.74888553063057   -1.35605310163582    0.32192991248182
H       116.63812135796843   -4.43879653050779    0.90179253253743
H       114.68238450191073   -2.59073992925196    0.66000357626609
H       114.73004386755227    2.68672245102507   -0.39095696638687
H       116.70891355014220    4.46723837634167   -0.63109039569408
H       118.37440622871252    0.64307574666804    0.04984009941312
H       119.32734332738056    4.35008560976932   -0.50793538854498
H       121.86480267485625    4.44104554371474   -0.41212786326012
H       123.82071065197974    2.59689692828719   -0.14552222126891
H       123.76977062194483   -2.76370918627272    0.33000013710577
H       121.79076922840147   -4.53630361094457    0.62271527081661
H       120.12805665037908   -0.67119643789137    0.22514856832032
H       119.17466975761437   -4.38389215114666    0.74617265371659
C       127.78757517751467   -2.95788845293343    1.81095022795080
C       126.80756883319482   -2.15224859532076    1.35735843200404
C       127.47297969221971   -1.05805995843546    0.67523663971654
C       126.78367984207455    0.00262295178600    0.05417898067414
C       127.42547282275098    1.08328100198585   -0.57355372612090
C       126.82654206408904    2.18029236511270   -1.24591484269879
C       127.83428655253566    2.98531351827936   -1.69452829268729
C       129.06985432264119    2.39312630531502   -1.31098868220744
N       128.77049823833352    1.24760392454345   -0.63895852247795
C       130.33533735663787    2.89367663491371   -1.58405247294761
C       131.56631841706684    2.34333283209538   -1.26448108086482
C       132.82026083416858    2.97413497052758   -1.64077451872586
C       133.80027285070841    2.16457825871486   -1.19407022185841
C       133.13334741327387    1.05046635391667   -0.54608748476026
N       131.79731811018371    1.18388089953814   -0.60357903681969
C       133.82015935714836   -0.02889123510094    0.04237621475886
C       133.17972661746029   -1.12159183743267    0.64830883106002
C       133.78093067104484   -2.23689049758884    1.28835551629686
C       132.77345638313844   -3.03549781847079    1.74906222678568
C       131.53668899310713   -2.42287018632898    1.40265245599154
N       131.83445940830885   -1.27302138517813    0.73798018552528
C       130.27100200855187   -2.90652841573540    1.70460988297453
C       129.04063135802065   -2.34445289901676    1.40459037648059
N       128.80845924073185   -1.19565886252265    0.72466389193405
H       127.70716606322765   -3.87215735431496    2.36702159057789
H       125.74517199152433   -2.24665589213075    1.46886500407750
H       125.77118567845677    2.31742387983983   -1.37585902309069
H       127.74055074862582    3.90180331165288   -2.24392200731406
H       129.42704729614803    0.58633207853919   -0.23852530632529
H       130.36105709413368    3.82975835984850   -2.12553336438199
H       132.90135668130537    3.90147559818970   -2.17465227017632
H       134.86358179423195    2.26954014119219   -1.28840831752036
H       134.83772846494423   -2.38984186122802    1.38776778956807
H       132.86811243965474   -3.96123087899676    2.28258194016424
H       131.17774833183194   -0.59903877618984    0.35960222647836
H       130.24500901398869   -3.84018760908774    2.25024766283521
