310
 energy: -568.984906877071 gnorm: 0.000612493245 xtb: 6.4.1 (bd6e46d)
Cu       50.61506554624552    0.00361709693206   -0.01284877657457
C        53.12215141916875   -3.43622494524097    0.04130462878986
C        54.08032970880326   -2.47921667824849    0.02594361997787
C        53.39870073592034   -1.21693220443280    0.00659938004202
C        54.05294133944309    0.02359155416863   -0.01283931412001
C        53.38410556846204    1.25639605305807   -0.03015233671126
C        54.05100663117211    2.52660151465782   -0.04590832777304
C        53.08185952839459    3.47234044881594   -0.05793799591565
C        51.82608520412314    2.77790261271066   -0.05029729795057
N        52.04343660146876    1.43450098507266   -0.03311098141623
C        50.59366736645487    3.40608840547544   -0.06140448094731
C        49.36970745612854    2.76143775354279   -0.05565324673089
C        48.10084236969085    3.43707739794527   -0.06948190262986
C        47.14827862419651    2.47692806381433   -0.05707899710933
C        47.83407218776680    1.21343288110074   -0.03542741498444
N        49.17542026588760    1.41837754093165   -0.03557575334803
C        47.19970710629291   -0.01627366419142   -0.01647131923357
C        47.84850157007644   -1.23841299451930    0.00413289556902
C        47.17742691578029   -2.50984927454774    0.02338499814890
C        48.14106448184533   -3.45881293623752    0.03922098342321
C        49.40199432101103   -2.76835889384961    0.02961487261423
N        49.19219057233173   -1.42762041766032    0.00839004820285
C        50.63331064404885   -3.39874743764211    0.04026492649554
C        51.85841777268238   -2.75639421405332    0.03072083841327
N        52.06018715076006   -1.41061377409073    0.00986605695637
H        53.24084058263593   -4.50236782075560    0.05788340059095
H        55.14690447683994   -2.59450472927716    0.02711189008045
H        55.11608484434667    2.65427703822468   -0.04652969917795
H        53.18814602910177    4.53972681929407   -0.07071511030598
H        50.58780368472946    4.48645100545031   -0.07629129662253
H        47.97950005898162    4.50304924357790   -0.08659033169845
H        46.08126055933959    2.58966234754098   -0.06170052635458
H        46.11948833798439   -0.02266571388696   -0.01791844396217
H        46.11177437544776   -2.63501683444505    0.02437568187999
H        48.03209082785948   -4.52614016328550    0.05575563208393
H        50.63982731385069   -4.47909235894801    0.05716585189399
Cu      144.83314404923914    0.04236177417884   -0.01482841181157
C       142.33399328886361    3.44997596807579    0.49502207140414
C       141.37353062548681    2.50613888740493    0.35090655897962
C       142.05206247238192    1.25568148113854    0.16546607081065
C       141.39461753256413    0.02961783721095   -0.01299779609563
C       142.06056453662666   -1.19166992812782   -0.19268455677297
C       141.39106198481363   -2.44684860730045   -0.37886646097951
C       142.35827242653977   -3.38342797708352   -0.52484360010944
C       143.61549878500730   -2.69843640757739   -0.42715157764471
N       143.40091542640630   -1.36981038172582   -0.22501635367878
C       144.84663903105056   -3.32090358873357   -0.52999921301684
C       146.07205561137962   -2.68548759848608   -0.43883821506741
C       147.33933179297236   -3.35527626671424   -0.54928932781879
C       148.29417851053296   -2.40839949562475   -0.40392457644577
C       147.61139126597803   -1.15879175220383   -0.20497721807371
N       146.26951872802607   -1.35869556780657   -0.23221116560191
C       148.24881257831436    0.05456911632964   -0.01401377042604
C       147.60289964140239    1.26358626733021    0.17602976763852
C       148.27668101202681    2.51836813439354    0.37301307466523
C       147.31506137634688    3.45864640766392    0.51659571107979
C       146.05265141523412    2.77945825927785    0.40789319862030
N       146.25964141307185    1.45389434956998    0.20296641896081
C       144.82258599849567    3.40582137614573    0.49888854992404
C       143.59609594389951    2.77407180584398    0.39745522512063
N       143.39110444862249    1.44367579259307    0.19661898635154
H       142.21787571957930    4.50474777121995    0.65299231963442
H       140.30728468365970    2.62311102997957    0.36620433599618
H       140.32568301104121   -2.57154627345589   -0.39356880636012
H       142.24974922802164   -4.43880090369009   -0.68393739522260
H       144.85022204100807   -4.38875133490550   -0.69472182503940
H       147.45818888959121   -4.40865658237614   -0.71546826344647
H       149.36094296452652   -2.52168917494450   -0.42587340499404
H       149.32904098436256    0.05829805121621   -0.01380407929099
H       149.34258988446555    2.63941196396383    0.39458177049405
H       147.42634839850476    4.51316295088111    0.68071104189760
H       144.81822735034027    4.47391106593557    0.66210469346045
C        55.45034638781420    0.03222001674233   -0.01528821331922
C        56.66849315492900    0.04059071480215   -0.01778874388509
C        58.01002494864357    0.04793290186625   -0.01966400500181
C        59.22834800629979    0.05336907025848   -0.02013108119118
C        68.91019428341052    0.08063430096486   -0.01670952611489
C        70.12879477163992    0.07628463085770   -0.01725107584521
C        71.46988382089938    0.07222659115603   -0.01751630707750
C        72.68846127362578    0.06326833924558   -0.01813288561320
C        82.37030772549522    0.03776434164241   -0.02182942114973
C        83.58893593279282    0.03549663699615   -0.02281564039137
C        84.92999105595783    0.03588582617315   -0.02032535445169
C        86.14861855014372    0.03738862458298   -0.02093394681694
C        95.83069370514434    0.04690911463046   -0.02184349913063
C        97.04929811460072    0.04348572628472   -0.02520581019052
C        98.39037037639616    0.04256979656962   -0.02460976994865
C        99.60898943269854    0.04039752442866   -0.02427731849634
C       109.29227842929598    0.05556962636184   -0.02186965848942
C       110.51097037017942    0.05314874975273   -0.02377323244403
C       111.85215940417221    0.05225659989285   -0.02315117552771
C       113.07083866338894    0.04840230266623   -0.02297246352052
C       122.75555494033864    0.03170413016806   -0.02548409568050
C       123.97421772654101    0.02660176058932   -0.02540855396908
C       125.31547384173000    0.02327106171195   -0.02515389568972
C       126.53412689994308    0.01910983812057   -0.02359351676751
C       136.21866263408228    0.01789235389589   -0.01263783003754
C       137.43700501421554    0.02028616015652   -0.01272923218990
C       138.77878218883089    0.02182652545661   -0.01246303602990
C       139.99693493763155    0.02519139686784   -0.01251379667420
Cu       64.06935747075907    0.06854974011383   -0.01772385492781
C        61.59118803894080   -3.37459259028226    0.33062634464217
C        60.62304120351339   -2.43242611360622    0.23378128275222
C        61.29175573844267   -1.16976551371618    0.10470005133833
C        60.62509024265249    0.05849174461571   -0.02047660890261
C        61.28420835436421    1.29083214312696   -0.14561314187010
C        60.60839343632945    2.54957339348239   -0.27624166161430
C        61.57128535942449    3.49741072959690   -0.37127775059857
C        62.83132912822733    2.81492399316760   -0.29866817648097
N        62.62310178737184    1.47691614068005   -0.16217341135084
C        64.05971100778011    3.44756272493944   -0.35915601212051
C        65.29149742307742    2.82204599298099   -0.29249894426992
C        66.54756663591819    3.51237384596796   -0.35807520397692
C        67.51581713515291    2.57007248009859   -0.26255409051892
C        66.84722903378473    1.30690979664889   -0.13870688547378
N        65.50727137731066    1.48492721158944   -0.15880087798910
C        67.51383103405149    0.07822878241236   -0.01627798227717
C        66.85429998596882   -1.15436127115502    0.10657190592278
C        67.53010241112078   -2.41343285127682    0.23310931711411
C        66.56724370613382   -3.36125421465518    0.32860598858477
C        65.30733033931298   -2.67839090696614    0.25986033195469
N        65.51551663084669   -1.34015854602623    0.12525461984903
C        64.07896247091878   -3.31072605094981    0.32397902889676
C        62.84731386848487   -2.68484237467334    0.26024951442152
N        62.63166268125915   -1.34797374854168    0.12342890851647
H        61.48373988678775   -4.43643836554227    0.43948757136791
H        59.55778712550939   -2.55804532346054    0.24665237226103
H        59.54238459391222    2.66891502000266   -0.29137164639764
H        61.45775385307454    4.55858030627429   -0.48072141198260
H        64.05693752664978    4.52281162269295   -0.46750336207490
H        66.65498781813835    4.57462294957821   -0.46296869190400
H        68.58107735404981    2.69601644950838   -0.27257557713972
H        68.59603355504389   -2.53326071777027    0.24494761474721
H        66.68076917235925   -4.42269404683617    0.43534910285321
H        64.08176223664665   -4.38586682157962    0.43337918355056
Cu       77.52937914932102    0.04965984275259   -0.02174214525366
C        75.03240404022552   -3.37323373051088    0.38708281772586
C        74.06930677196065   -2.42710760617262    0.27797056985264
C        74.74476500968733   -1.17066907816238    0.12640045189917
C        74.08478507404504    0.05908585676770   -0.01952649174455
C        74.75115318069157    1.28522765009866   -0.16694576707589
C        74.08231489119034    2.54531715478000   -0.31757353750058
C        75.05040236540759    3.48603755753583   -0.42907511613309
C        76.30653148172982    2.79784655905870   -0.34611653923337
N        76.09099619742216    1.46332000260993   -0.18757036932864
C        77.53819615095048    3.42283097312212   -0.41743455659900
C        78.76653938891205    2.79187437941029   -0.34098983024441
C        80.02624778512592    3.47417951519473   -0.41770812768797
C        80.98935649259894    2.52829795647165   -0.30674026659868
C        80.31392618012801    1.27093583058071   -0.16294467491915
N        78.97502452859047    1.45582214843586   -0.18598663038892
C        80.97400723370468    0.04053991112968   -0.02247280850197
C        80.30768687835024   -1.18651334529447    0.11728123656806
C        80.97647033217331   -2.44758951010159    0.25934477385755
C        80.00837090073368   -3.38855358151600    0.36889503839182
C        78.75225023049978   -2.69945892988998    0.29370570079091
N        78.96781099886690   -1.36433370215073    0.14050166090347
C        77.52052480339233   -3.32375716677085    0.37081034022118
C        76.29216764412537   -2.69195568424512    0.30197907678466
N        76.08367028806265   -1.35616672703431    0.14452635996405
H        74.91914325428812   -4.43254173857179    0.51347984461073
H        73.00336002205705   -2.54641023166431    0.29584389068045
H        73.01704069472285    2.67051988099867   -0.33346792059265
H        74.94273652863745    4.54590239054703   -0.55563425205953
H        77.54107733636002    4.49614944113025   -0.54335301553769
H        80.13946223224055    4.53397297864106   -0.53987758411312
H        82.05525754848561    2.64836796153614   -0.31866264335606
H        82.04175278237754   -2.57328597704962    0.27084684819468
H        80.11603978457404   -4.44915024001976    0.48920466907389
H        77.51769333636956   -4.39720388265453    0.49574477305757
Cu       90.98962973811919    0.04261209765091   -0.01952722335025
C        88.50536831665926   -3.38955193424726    0.39136544426844
C        87.53870031474082   -2.44740001450494    0.27918791924165
C        88.20941374783284   -1.18846785970668    0.12759926133736
C        87.54491823795090    0.03864318787936   -0.02019203206376
C        88.20691759801353    1.26727938101220   -0.16680647278232
C        87.53340072807453    2.52481879859804   -0.31776622848023
C        88.49795994782235    3.46931046469800   -0.42807549837760
C        89.75665454350192    2.78596289250940   -0.34416859849273
N        89.54612545386006    1.45053098659631   -0.18620984842030
C        90.98595100441014    3.41570653421285   -0.41526620842523
C        92.21673709436244    2.78940108822351   -0.33941009912264
C        93.47390343866434    3.47622303028080   -0.41742915867855
C        94.44057730945948    2.53382171930050   -0.30734982946200
C        93.76987453484159    1.27410751188584   -0.16235732251099
N        92.43026559018341    1.45413042552155   -0.18431203834637
C        94.43437453040410    0.04624422621081   -0.02090051425332
C        93.77230882366943   -1.18277293891744    0.12242764486207
C        94.44577037337366   -2.44092943801255    0.26829235214349
C        93.48119086240901   -3.38514704861862    0.38069287240995
C        92.22254388371447   -2.70103134853633    0.30297840692501
N        92.43308764485262   -1.36547626312618    0.14602919164757
C        90.99326850790358   -3.33008565187595    0.38007208114711
C        89.76252115177631   -2.70334723183393    0.30793638992692
N        89.54901282674999   -1.36860242426163    0.14831055634698
H        88.39610446338209   -4.44917415556913    0.51865319939686
H        86.47322876877764   -2.57094719729688    0.29504451379121
H        86.46766581701567    2.64590438574140   -0.33445779671096
H        88.38632183471506    4.52877920348532   -0.55439444579135
H        90.98464467058798    4.48902510862086   -0.54121946610345
H        93.58317968569763    4.53640774364162   -0.53991215765951
H        95.50605631590923    2.65769283233040   -0.32043974019650
H        95.51148231591449   -2.56259229855574    0.28039098243757
H        93.59278682932836   -4.44493120582188    0.50439173101164
H        90.99457852248274   -4.40326189324864    0.50721323416170
Cu      104.45048593345264    0.04806696665247   -0.02128654088430
C       101.96824421858696   -3.38541935756063    0.38872106620932
C       101.00089086302488   -2.44408581943633    0.27589135190765
C       101.67066227908262   -1.18462047081265    0.12454075279821
C       101.00530615258550    0.04201529692224   -0.02347577841007
C       101.66672768657503    1.27098750786229   -0.17013027131105
C       100.99269658805991    2.52818446374693   -0.32138838069979
C       101.95685940123528    3.47309575040474   -0.43185629799995
C       103.21583153165547    2.79030347862833   -0.34781296214781
N       103.00585169953422    1.45484726760946   -0.18938014015428
C       104.44487625588864    3.42049916527036   -0.41915425953153
C       105.67602226506942    2.79495812665863   -0.34294986404102
C       106.93265826303966    3.48271187061801   -0.42146953686989
C       107.90004762156522    2.54117330096250   -0.31063982086414
C       107.23035755941879    1.28103739331640   -0.16451115119193
N       105.89056168437307    1.45995689474601   -0.18688884782741
C       107.89588070330011    0.05385926132096   -0.02169793925844
C       107.23439830682226   -1.17541435140860    0.12229368555095
C       107.90831443099067   -2.43317201631784    0.26935548305408
C       106.94408440067286   -3.37776390313610    0.38179365298287
C       105.68514453225151   -2.69429114639559    0.30286117053061
N       105.89523009239652   -1.35876625278491    0.14520678302761
C       104.45613501163167   -3.32398814594511    0.37928137412381
C       103.22491817437583   -2.69822282776463    0.30594556715333
N       103.01043653019794   -1.36368341718957    0.14603608510576
H       101.85974191597718   -4.44509449952024    0.51600488101242
H        99.93551879811379   -2.56849654834959    0.29105254595983
H        99.92690960079919    2.64880209809279   -0.33819092897580
H       101.84470356168924    4.53249797717074   -0.55844265619332
H       104.44305905048903    4.49376638146029   -0.54559859325947
H       107.04104738007025    4.54287788722255   -0.54475333911157
H       108.96541477849671    2.66589127322399   -0.32370535250786
H       108.97409094994958   -2.55436273916477    0.28228313688495
H       107.05610878010400   -4.43741551936907    0.50634226593526
H       104.45804131791884   -4.39711026619457    0.50689463368090
Cu      117.91312325396635    0.04049750721813   -0.02294914798403
C       115.41950402179336   -3.38403676420269    0.39160157561063
C       114.45512094068977   -2.43955469671856    0.27953770004223
C       115.12880377242590   -1.18242068641081    0.12600484216584
C       114.46723988351025    0.04621186379039   -0.02318558118371
C       115.13284229192936    1.27266159577428   -0.17179548696486
C       114.46335755915364    2.53208581392956   -0.32481972334560
C       115.43092926849818    3.47339748465338   -0.43607716918205
C       116.68747901087806    2.78627778553700   -0.35033184054191
N       116.47265801774860    1.45177517064796   -0.19083750255438
C       117.91876911378040    3.41231707408676   -0.42066815268148
C       119.14795470319099    2.78301085953217   -0.34342188949879
C       120.40680421454084    3.46699699010512   -0.42026706179166
C       121.37123078507361    2.52237766848253   -0.31001983965035
C       120.69757366504214    1.26411036161667   -0.16561230194554
N       119.35833846200732    1.44727057072819   -0.18831731948258
C       121.35907440767329    0.03449760816132   -0.02482307276624
C       120.69335354905347   -1.19268498705564    0.11732526289526
C       121.36283770868980   -2.45302601675378    0.26257174788610
C       120.39528450038611   -3.39411918959703    0.37599650882095
C       119.13873246554220   -2.70596057507790    0.29906186421196
N       119.35354195513726   -1.37115906033691    0.14179561078667
C       117.90751673772438   -3.33105212254456    0.37780006779847
C       116.67833357443884   -2.70102981974652    0.30657958326470
N       116.46801998073032   -1.36594303242702    0.14596706328517
H       115.30767993552654   -4.44326210682032    0.51989377446491
H       113.38936391336570   -2.56044729018340    0.29644594299809
H       113.39801826146264    2.65649476448898   -0.34227418109083
H       115.32262336515069    4.53301434254323   -0.56410042635629
H       117.92051259449505    4.48558730010137   -0.54708473482529
H       120.51856797683881    4.52695513661881   -0.54226111434120
H       122.43698579933231    2.64380638167164   -0.32254085967610
H       122.42820158755141   -2.57815049132259    0.27382981983575
H       120.50359304393047   -4.45425237563706    0.49986147996120
H       117.90575382344356   -4.40415154976338    0.50575299162835
Cu      131.37628574728791    0.01823657562319   -0.01654732986199
C       128.88774314756731   -3.42163904222730    0.28773669197411
C       127.92196248946948   -2.47551820061908    0.20549436803089
C       128.59382604112434   -1.21321217860426    0.09091870710144
C       127.93063574138010    0.01833629094273   -0.02167765773676
C       128.59444660762213    1.24981353423393   -0.13217891943801
C       127.92302871438136    2.51222164369166   -0.24853565301302
C       128.88909235831349    3.45829464452630   -0.32711412101966
C       130.14670904867521    2.77108397162322   -0.25861626231784
N       129.93397258263010    1.43190503072136   -0.14169268634426
C       131.37694646072515    3.40153472123381   -0.30324240509678
C       132.60702352649773    2.77234277504697   -0.24088425507791
C       133.86496545584151    3.46073698726940   -0.28961896351351
C       134.83069820287608    2.51462651636532   -0.20761939609134
C       134.15873985385471    1.25091898373809   -0.10900102220265
N       132.81922954636170    1.43260524125160   -0.13001127318527
C       134.82166146441745    0.01802202815562   -0.01327583305067
C       134.15820355971300   -1.21462005038197    0.08178350711756
C       134.82980470917349   -2.47827943694225    0.18295769973525
C       133.86381396295499   -3.42418312727055    0.26432118332333
C       132.60602812955742   -2.73568179595713    0.21210289565357
N       132.81861040293953   -1.39606512165173    0.10032290490160
C       131.37578723889376   -3.36486025475444    0.27186620824742
C       130.14562283729919   -2.73452919745505    0.22292291565618
N       129.93331380932469   -1.39539045516735    0.10480941807695
H       128.77746833367777   -4.48450851864021    0.38302282924880
H       126.85637428286709   -2.59841510894443    0.21911980865070
H       126.85753569310974    2.63519777733962   -0.26559764235623
H       128.77919721901006    4.52119047494379   -0.42242089777573
H       131.37699863397779    4.47834784061218   -0.39483979637749
H       133.97527676667548    4.52440615570105   -0.37541205563905
H       135.89628850799284    2.63824430704236   -0.21253674272530
H       135.89539195475916   -2.60188804384276    0.19010179787633
H       133.97384619493855   -4.48779145452555    0.35165067665024
H       131.37570837915774   -4.44158005995357    0.36461454376368
