310
 energy: -562.974455350600 gnorm: 0.000825829066 xtb: 6.4.1 (bd6e46d)
Fe       50.01977267087840    0.00785085446736   -0.01340599442587
C        52.52580605499644   -3.37592293352007    0.01983611205026
C        53.51608415320494   -2.45291873913705    0.01899497176953
C        52.87307496311694   -1.17477413883534    0.00694899411920
C        53.54680536238135    0.05051978082603    0.00012446800589
C        52.84395192918271    1.25918942861205   -0.00855198325583
C        53.45593845269815    2.55256351441500   -0.01117852645489
C        52.44361992026890    3.45135827064263   -0.01417605514205
C        51.22065624049692    2.70125963861918   -0.01462020248397
N        51.48676454740921    1.35710292408392   -0.01132285002139
C        49.97737872433736    3.30297380325158   -0.01854433243024
C        48.75060711223896    2.66891029375198   -0.02357634779145
C        47.50580680936292    3.38654941838937   -0.03102487388235
C        46.52002523320179    2.46140936455778   -0.03829325120140
C        47.16544463849156    1.18059307823702   -0.03459039023673
N        48.52290752877132    1.32064050204983   -0.02528046384259
C        46.51016899577582   -0.03463364758751   -0.03944111030701
C        47.19460537927749   -1.23367406298083   -0.03239109311794
C        46.58035079277823   -2.52972455888895   -0.03454033033015
C        47.58818761354809   -3.43073349542638   -0.02243484887454
C        48.81521257440721   -2.68316968049772   -0.01335309114085
N        48.55502932559034   -1.34080948632909   -0.02006512499784
C        50.05688386230182   -3.28734291614887    0.00063352737900
C        51.28514831854670   -2.65565889316071    0.00740536126703
N        51.51870980256489   -1.30545380528705    0.00049564875668
H        52.60800630653521   -4.44564983737901    0.02763201154103
H        54.57849854766935   -2.60054476254322    0.02590323691969
H        54.51453877873648    2.72571020418961   -0.00971870261663
H        52.49989894210135    4.52279010964232   -0.01614393904774
H        49.96432992360562    4.38378466377834   -0.01920472329497
H        47.42185347553106    4.45638152735878   -0.03093760556228
H        45.45737031130574    2.60896162589824   -0.04537347643342
H        45.43131332788678   -0.04767858443611   -0.04803861907180
H        45.52160547284090   -2.70298002549594   -0.04381391345809
H        47.53019314284688   -4.50228310491093   -0.01982960901005
H        50.07003265568863   -4.36813700283510    0.00584470711217
Fe      145.42248676378210    0.04253797202103   -0.01304446760434
C       142.92625378808955    3.38113757290013    0.58158080213001
C       141.93337774053236    2.47509192134191    0.42069637607609
C       142.57284487333860    1.21443725759722    0.19918833156040
C       141.89581426230325    0.00831420209542   -0.00515157788442
C       142.59487135683835   -1.18489905844463   -0.21063948136413
C       141.97891185574477   -2.45819295846072   -0.42697254052511
C       142.98847221515160   -3.34548848674401   -0.58838404534344
C       144.21366849640765   -2.60836295739536   -0.47062537516652
N       143.95172088533022   -1.28373922430223   -0.23771993376097
C       145.45510082856836   -3.20241848796142   -0.58795363995414
C       146.68360092263262   -2.57936516690787   -0.49012265437404
C       147.92627918509353   -3.28722821397657   -0.62898620847786
C       148.91474312335117   -2.37805272538982   -0.47400504936562
C       148.27309352756720   -1.11673358462719   -0.24062489385330
N       146.91524565464019   -1.25260015466826   -0.25398227105276
C       148.93199040090852    0.07760957002074   -0.02711196319547
C       148.25119661721752    1.25844440818611    0.19277181486639
C       148.86938871722415    2.53197249186018    0.42320971139934
C       147.86425046931831    3.42079787143514    0.58858143634495
C       146.63491437147036    2.68845139438044    0.45836359873335
N       146.89107416244229    1.36701562046334    0.21768729091040
C       145.39502334464183    3.28660943479596    0.56687513836940
C       144.16492895626672    2.66836237769821    0.45573545707028
N       143.92763211001548    1.33950935292250    0.22039236217125
H       142.84700013662408    4.43467278110278    0.76848639613882
H       140.87133967951215    2.62330265697495    0.44765099781797
H       140.91981403152565   -2.62688937323649   -0.44855023074598
H       142.92894094348247   -4.40106710252045   -0.77091097777373
H       145.46500202314490   -4.26670673511345   -0.77637138452585
H       148.00703658855886   -4.34021229138115   -0.81948058091372
H       149.97693422564123   -2.52467930858783   -0.50990174151190
H       150.01089189605685    0.08837796631204   -0.03163293196221
H       149.92868731265420    2.69986513833920    0.45049513246183
H       147.92546634145313    4.47482613982087    0.78062272451263
H       145.38499145214774    4.35041233937545    0.75800844270015
C        54.94353120807112    0.06565149779588    0.00110898056311
C        56.16135566052537    0.07222128198710    0.00017205826866
C        57.50402674393475    0.07867894094339    0.00000331172049
C        58.72199483896777    0.07888155085907   -0.00126848093085
C        68.57784007958699    0.04896182076947   -0.02576810916625
C        69.79591721030349    0.04840324563046   -0.02800453916043
C        71.13810563206444    0.04838260148175   -0.02613304962153
C        72.35617784650979    0.04618212605968   -0.02211416547573
C        82.20851747805935    0.04373762488519   -0.01812731460192
C        83.42648577350778    0.04676894293898   -0.02050124491987
C        84.76835037370890    0.04650971163237   -0.01943583814508
C        85.98628746444317    0.04649177029575   -0.01962569714046
C        95.83426352238421    0.04365077225694   -0.02238413590808
C        97.05210999352632    0.04541171022132   -0.02245164471767
C        98.39375950100450    0.04547729517189   -0.02086519985177
C        99.61162803931558    0.04694789201413   -0.02119144108284
C       109.45931442177616    0.04290282292167   -0.02191998696296
C       110.67721518564024    0.04509617415850   -0.01815711751435
C       112.01901887498055    0.04801884235237   -0.01893171346415
C       113.23692612268316    0.04921450590366   -0.02217747750118
C       123.08812972273138    0.05024026862360   -0.02056213876358
C       124.30616971248719    0.04782626750110   -0.02287430044937
C       125.64826008744627    0.04379644760283   -0.02558902775354
C       126.86627150110273    0.03846086759561   -0.02392700512340
C       136.72060047965380   -0.00873229015057   -0.00744593881126
C       137.93848176736918   -0.01144816199264   -0.00691507569145
C       139.28123177214607   -0.00959565858903   -0.00756571071780
C       140.49894185112973   -0.00288742133583   -0.00582891558646
Fe       63.65019824657855    0.06423036725265   -0.01538406307593
C        61.17291916750344   -3.32050470948512    0.36538479360373
C        60.17356117180960   -2.41252367597575    0.26634313792971
C        60.80418295403604   -1.13606046636014    0.12456465098982
C        60.11822180961590    0.07598419550900   -0.00534427097468
C        60.81107372632648    1.28350509697169   -0.13923253843385
C        60.18814743437146    2.56406245057175   -0.27792518085748
C        61.19297197732119    3.46528398144648   -0.38341976245926
C        62.42168079095627    2.72908652990142   -0.30813379470714
N        62.16672656674606    1.39100218341537   -0.15776731522887
C        63.65982278935431    3.33595460422533   -0.38379074345262
C        64.89426480754577    2.72021494527266   -0.32111180449709
C        66.12734652235754    3.44750052476661   -0.41015512469984
C        67.12675292101544    2.53961756488132   -0.31039523772360
C        66.49614465460927    1.26405934424892   -0.16111677644297
N        65.14124074486031    1.38076524456057   -0.16919912452678
C        67.18199043613494    0.05281029260988   -0.02322434167547
C        66.48908234276014   -1.15413190529180    0.11675754876524
C        67.11214123512738   -2.43385463106163    0.26195303904398
C        66.10735994789943   -3.33535101083799    0.36574543027258
C        64.87861060130780   -2.60003166435233    0.28314877858940
N        65.13351115944585   -1.26212994710947    0.13082202596397
C        63.64047085395023   -3.20764070731596    0.35199232426015
C        62.40603803983395   -2.59245823404620    0.28356451438193
N        62.15913277808652   -1.25259660507664    0.13532287128502
H        61.10128435312279   -4.38451823016663    0.48307300345883
H        59.11260881997232   -2.56922057761104    0.28528026445660
H        59.12814473577726    2.72777305313479   -0.29086939254561
H        61.12780499608036    4.52967837909277   -0.50148395669688
H        63.66310487273071    4.41008958441091   -0.50507565435167
H        66.19895749004921    4.51099672718723   -0.53244171842224
H        68.18769728282233    2.69591417564786   -0.33304357530403
H        68.17215880530448   -2.59703291447603    0.27934378817681
H        66.17261631771679   -4.39937721531658    0.48697281444284
H        63.63720753176523   -4.28184646623110    0.47263858571337
Fe       77.28273275189217    0.04459828185719   -0.02245561223446
C        74.81475377436972   -3.34545754050062    0.37131913681303
C        73.81321517926963   -2.44048421089360    0.26659532772998
C        74.44084210131567   -1.16340723557487    0.11787087595918
C        73.75200730839254    0.04581127828920   -0.02270216670833
C        74.44153053885806    1.25477396756936   -0.16242071598504
C        73.81482819916745    2.53245852743586   -0.30993668456694
C        74.81702404150234    3.43669629642438   -0.41478768976146
C        76.04780951613310    2.70511948803242   -0.33034256050631
N        75.79675510219380    1.36674744210990   -0.17545943005586
C        77.28405755041302    3.31629695951878   -0.40138823248415
C        78.52001203447347    2.70468900938397   -0.33018990747589
C        79.75150529855762    3.43519066474614   -0.41430949287768
C        80.75281663050706    2.53012190014630   -0.30831528415047
C        80.12472004075755    1.25313690272975   -0.16073370341640
N        78.76973160636931    1.36616770913833   -0.17474308875897
C        80.81301091759524    0.04368792590216   -0.02066934244239
C        80.12396620844662   -1.16552675770839    0.11780930942635
C        80.75121280748495   -2.44307254384465    0.26435750059092
C        79.74929847770825   -3.34777070689869    0.36803197248307
C        78.51828205738416   -2.61640130772102    0.28443528248696
N        78.76889751287945   -1.27786911480437    0.13061163856563
C        77.28187189911168   -3.22711372106026    0.35573568726102
C        76.04608014286831   -2.61487532980575    0.28593774057631
N        75.79599039706116   -1.27634963931892    0.13070552351522
H        74.74581388512755   -4.40897209344944    0.49493969439988
H        72.75263930817093   -2.59967640220627    0.28554512526461
H        72.75438283438687    2.69255927349128   -0.32811407740044
H        74.74886365290025    4.50033588658727   -0.53775129218269
H        77.28429166133280    4.39003215375683   -0.52606946489783
H        79.82091806331847    4.49867214262243   -0.53792279394092
H        81.81344452222511    2.68914058092264   -0.32606243943667
H        81.81175631569455   -2.60273208112049    0.28246127979671
H        79.81798423893531   -4.41151666813041    0.48981990223692
H        77.28128374675012   -4.30093631227460    0.47967393082408
Fe       90.91048616370868    0.04523151944476   -0.02114585366357
C        88.44237685571952   -3.34551163788902    0.37087102999167
C        87.44138502231502   -2.44002342400718    0.26560125617015
C        88.06990436534475   -1.16311396914644    0.11899578460499
C        87.38178395985695    0.04657819500809   -0.01977124632174
C        88.07043610595136    1.25586306557388   -0.15941677603975
C        87.44281678491866    2.53317770462964   -0.30623467090317
C        88.44445403078817    3.43781540457056   -0.41280226127331
C        89.67565033850177    2.70673848484445   -0.33003799502287
N        89.42545918188078    1.36832839978329   -0.17414659444575
C        90.91165246592932    3.31795340284703   -0.40382425146591
C        92.14732293453305    2.70563941272332   -0.33439385320538
C        93.37912145223189    3.43514290437530   -0.42226358958460
C        94.38000101007805    2.52954545440949   -0.31680762707016
C        93.75123196568713    1.25334493129070   -0.16515104244223
N        92.39638122580183    1.36718952913407   -0.17715229622459
C        94.43894850224716    0.04403463568452   -0.02190178021393
C        93.75050662319998   -1.16481980864430    0.12163447930049
C        94.37849311414548   -2.44140539422097    0.27328220215729
C        93.37705332418091   -3.34631152943190    0.37944971918240
C        92.14570956465052   -2.61602352019813    0.29174365571331
N        92.39559479964834   -1.27777808665321    0.13410969935296
C        90.90962255364177   -3.22747214523064    0.36135309478211
C        89.67407902191073   -2.61530631888819    0.28797986434857
N        89.42483178518103   -1.27660213771543    0.13291330331266
H        88.37286970592578   -4.40912044657575    0.49337366840017
H        86.38070435137865   -2.59868833516415    0.28286852005492
H        86.38225317315818    2.69266510943293   -0.32305394410395
H        88.37570096483400    4.50138013190062   -0.53610362465414
H        90.91192953503727    4.39156656760242   -0.52942064849285
H        93.44889405507648    4.49838545840020   -0.54772786596619
H        95.44071529677250    2.68769004345486   -0.33690671030602
H        95.43911338799369   -2.60025534310698    0.29306266507557
H        93.44615418306009   -4.40955175960139    0.50536846584732
H        90.90911445569539   -4.30109772943424    0.48682544405850
Fe      104.53532512282760    0.04488271706117   -0.02087431197199
C       102.06638313100368   -3.34404844404594    0.38647994290350
C       101.06559843435495   -2.43870211763352    0.27794042893296
C       101.69450718757228   -1.16280925390174    0.12440232959535
C       101.00694516545370    0.04632690752221   -0.02100120189702
C       101.69552705450188    1.25491516535293   -0.16604084555826
C       101.06762210113619    2.53135609597327   -0.31918036075776
C       102.06911817605952    3.43594689670197   -0.42747764679302
C       103.30039758262809    2.70558698885459   -0.33974058206859
N       103.05044959064692    1.36767116894059   -0.17936263624801
C       104.53649340603431    3.31660709362152   -0.41270129515027
C       105.77198756405343    2.70435815016081   -0.33935564978157
C       107.00373577945921    3.43393948068907   -0.42675243261075
C       108.00466407808807    2.52870129110449   -0.31869431055552
C       107.37602712654571    1.25257269016051   -0.16610694132606
N       106.02110434722228    1.36621709082966   -0.17938499697595
C       108.06385229692667    0.04338347289158   -0.02169731380919
C       107.37502843174262   -1.16515919788308    0.12306423472312
C       108.00266522880106   -2.44177979312192    0.27570273917642
C       107.00102951823790   -3.34617495069038    0.38431568030211
C       105.76985092257144   -2.61556869592485    0.29740912792800
N       106.02001664172482   -1.27765613421178    0.13714009381920
C       104.53384909010168   -3.22673943717705    0.37130662999415
C       103.29824687831352   -2.61469816047622    0.29846695647394
N       103.04935289972471   -1.27662006332921    0.13779713191739
H       101.99649754065987   -4.40700504371072    0.51427499402858
H       100.00487493150061   -2.59684457347462    0.29729444198670
H       100.00701651193776    2.69035485432142   -0.33839396805101
H       102.00007820496239    4.49899578997207   -0.55498052757911
H       104.53706349331614    4.38987807651980   -0.54115605944049
H       107.07334642461034    4.49699823790913   -0.55384514829863
H       109.06534366612964    2.68709296386995   -0.33785632363777
H       109.06323482110447   -2.60105078220198    0.29434798287344
H       107.06979809801921   -4.40927732889927    0.51150990776464
H       104.53351556247021   -4.29998408615744    0.49998552291179
Fe      118.16222093528378    0.04996266041981   -0.02119470768696
C       115.69507271097699   -3.34011676841787    0.38461119943868
C       114.69344507848193   -2.43563210380619    0.27657551771186
C       115.32110952452550   -1.15900729593636    0.12401252243698
C       114.63239257728372    0.04961841549785   -0.02092482154504
C       115.32074606514306    1.25841391264501   -0.16601817636765
C       114.69275820653982    2.53474328528364   -0.31973194734741
C       115.69415056079758    3.43941926182287   -0.42835389562616
C       116.92557009489340    2.70926032039017   -0.34027818799474
N       116.67572747797222    1.37140916863852   -0.17942791574348
C       118.16160597181998    3.32048814532588   -0.41331174072254
C       119.39763933203143    2.70921918768579   -0.33972810298438
C       120.62871198458164    3.43997642350040   -0.42726323981506
C       121.63055298773976    2.53575260367873   -0.31902522174715
C       121.00330800658581    1.25894738958488   -0.16640541277421
N       119.64815352142682    1.37136028322836   -0.17961753701561
C       121.69239564772221    0.05042227363260   -0.02186360866765
C       121.00359752600181   -1.15823869192237    0.12358756870509
C       121.63118994402940   -2.43474533761559    0.27741928053380
C       120.62959328031111   -3.33921245090998    0.38588953328760
C       119.39834360549087   -2.60884340317004    0.29791917325956
N       119.64849486362893   -1.27098610372466    0.13715796100076
C       118.16245658955091   -3.22047225791920    0.37080394232275
C       116.92629876982939   -2.60955704518898    0.29738757928505
N       116.67612551120926   -1.27163523139062    0.13747574944338
H       115.62608899759161   -4.40323713027513    0.51153671204393
H       113.63286906518647   -2.59485536845543    0.29566587479971
H       113.63213562904212    2.69365989115285   -0.33908981359810
H       115.62487693258323    4.50239506147526   -0.55634637837468
H       118.16164228101547    4.39373082689092   -0.54214208526767
H       120.69729274270129    4.50308415802492   -0.55453858846070
H       122.69108023373451    2.69526294177210   -0.33819665196215
H       122.69174438605442   -2.59396977365455    0.29685367377326
H       120.69847160338161   -4.40223048941618    0.51371932829541
H       118.16272397914196   -4.29376419563039    0.49920849651109
Fe      131.79309824431311    0.01397583709288   -0.02023847212424
C       129.30842123969546   -3.36538263508119    0.36193386492728
C       128.31122089007110   -2.45512248702986    0.26188668773828
C       128.94496558038816   -1.18071343904510    0.11601403865530
C       128.26202060280960    0.03198223987572   -0.02292262388148
C       128.95727697701867    1.23761559334607   -0.16212594262617
C       128.33674431027413    2.51810389658470   -0.31163874933528
C       129.34332151448004    3.41787371065258   -0.41278716782255
C       130.57058035850406    2.68079813084957   -0.32382970967252
N       130.31301050914914    1.34342042700126   -0.17133559722796
C       131.80995492416923    3.28656550886359   -0.38551436399047
C       133.04287581894633    2.66940378030587   -0.30828089349336
C       134.27768932784252    3.39564264065119   -0.38002713500385
C       135.27489383414402    2.48606357555520   -0.27414586273631
C       134.64123811604014    1.21030641226680   -0.13956342658527
N       133.28655919283094    1.32900130661404   -0.15975815555398
C       135.32426799187709   -0.00349538045741   -0.01207351711859
C       134.62912121610071   -1.21069000146110    0.11104878570506
C       135.24952032175693   -2.49287239628328    0.24627057721721
C       134.24286880025397   -3.39285441965653    0.34430035308810
C       133.01563689742548   -2.65421963972728    0.26866764252009
N       133.27322213552512   -1.31599153061129    0.12443978785268
C       131.77626834440483   -3.25911882580254    0.33984124896780
C       130.54326941374563   -2.64064427518141    0.27658491723318
N       130.29954400460085   -1.30035988410230    0.12667577622089
H       129.23425013053668   -4.42893481240947    0.48217401952068
H       127.24989124325835   -2.60913669337420    0.28201161130781
H       127.27706504629629    2.68288714082153   -0.33349306993348
H       129.28021641967254    4.48183507087734   -0.53573575747586
H       131.81567504149317    4.36070848231319   -0.50655243415246
H       134.35180379041498    4.45964555896990   -0.49628797624222
H       136.33621165653156    2.64110892057905   -0.28525488997337
H       136.30920337173072   -2.65836488567672    0.26227733126102
H       134.30586460197773   -4.45786349472603    0.45782303912518
H       131.77069747595769   -4.33358420537530    0.45799531569676
