201
 energy: -369.720567404100 gnorm: 0.000597420814 xtb: 6.4.1 (bd6e46d)
Cu       23.81757367934532    0.00052473705434   -0.01019026145707
C        26.35010169635148   -3.42140459705018    0.04006934618121
C        27.30157012007200   -2.45772316095753    0.03753761610165
C        26.61112776235095   -1.20006481300873    0.01864438387865
C        27.25670757603044    0.04552633359834    0.00800090817501
C        26.57857115987845    1.27350881558036   -0.00466745840333
C        27.23572903611613    2.54896732109918   -0.01098831919460
C        26.25922315438115    3.48726920568507   -0.01722170138200
C        25.00879607955024    2.78296048508334   -0.01542785481443
N        25.23650953274840    1.44119676330058   -0.00835940797578
C        23.77163630596177    3.40207300618120   -0.01977856381782
C        22.55207811423588    2.74893149234080   -0.02329097527528
C        21.27842971300454    3.41576789089499   -0.03180864842036
C        20.33272207067706    2.44878054357335   -0.03937402654520
C        21.02750305830452    1.18996943364846   -0.03478945390191
N        22.36734190825403    1.40442132272276   -0.02423592169143
C        20.40224817281349   -0.04463358772209   -0.04197991502179
C        21.06015503497222   -1.26213763241089   -0.03422076726580
C        20.39879933600569   -2.53882226615199   -0.03823073252123
C        21.36958479950957   -3.48048420145914   -0.02173196799486
C        22.62513449347481   -2.78027878830916   -0.00841350871695
N        22.40515280248569   -1.44111054589105   -0.01738967565240
C        23.86111712905176   -3.40144920076599    0.01216370156809
C        25.08166523407889   -2.75034432621907    0.02179333246842
N        25.27410048317511   -1.40311158739707    0.01056490381852
H        26.47632119667373   -4.48672410294730    0.05251134793935
H        28.36882044439151   -2.56639374725912    0.04752758389669
H        28.29983545617170    2.68552848329189   -0.00998892953456
H        26.35729276241519    4.55560404685372   -0.02295779562900
H        23.75813064739652    4.48248017644810   -0.02247456816241
H        21.14935580510288    4.48100865549225   -0.03216983914458
H        19.26492807879717    2.55400568077964   -0.04727319262601
H        19.32214928532190   -0.05910823208877   -0.05319717562149
H        19.33421570843679   -2.67215573424817   -0.05141623565533
H        21.26883221822888   -4.54873829221646   -0.01876559680272
H        23.87551563103988   -4.48181963048436    0.02016961173751
Cu       87.87754824591352    0.02881714990524   -0.00830261793424
C        85.35204966528563    3.39161994510648    0.65144901598107
C        84.39861340461847    2.44708053292594    0.47048308109801
C        85.08652130007478    1.21122716149580    0.22917363936086
C        84.43840851307873   -0.01147872936618   -0.00144259879163
C        85.11398073696742   -1.21956074928679   -0.22922112732884
C        84.45430284413912   -2.47243954057471   -0.46109762075418
C        85.42893780206067   -3.39583482261142   -0.63844534443636
C        86.68074849386949   -2.70488319969398   -0.51526319199300
N        86.45570198521177   -1.38593340292145   -0.26648351365354
C        87.91669382240987   -3.31409247331042   -0.63824420023241
C        89.13741483414334   -2.67256069054270   -0.52812525796592
C        90.40969674067901   -3.32807488934065   -0.66437381285237
C        91.35732280136426   -2.37790177992180   -0.49523036743234
C        90.66512866311241   -1.14083333199243   -0.25472317909372
N        89.32488809860091   -1.35134886787071   -0.28099442495940
C        91.29306743142467    0.07187718500738   -0.03078910586674
C        90.63777751622624    1.26779892354080    0.20473246985515
C        91.30175662598928    2.52114918675687    0.44055696040562
C        90.33285382395974    3.44585250397077    0.62915390562420
C        89.07580740379694    2.75879105983600    0.50780705810664
N        89.29312821484548    1.44393796578763    0.25140914661766
C        87.84094073184683    3.36918961631408    0.63574239144977
C        86.61915046815533    2.73099667207546    0.51889434982321
N        86.42404540801422    1.40857790587854    0.26332464264220
H        85.22797236381800    4.43757075852386    0.85524648148229
H        83.33157746184487    2.55531311706641    0.49493918970906
H        83.38992500750552   -2.60549185058210   -0.48113629543239
H        85.32870855407553   -4.44578607472563   -0.83482907151955
H        87.92824624211924   -4.37591499139161   -0.83793754933327
H        90.53651802521789   -4.37490508938578   -0.86295642891106
H        92.42488192312162   -2.48140618735318   -0.52578931877886
H        92.37320006892701    0.08576923282178   -0.03907454323148
H        92.36666399734392    2.65184049664607    0.45558328294879
H        90.43579299529364    4.49462539722297    0.83120390261317
H        87.82846295202081    4.42979951176562    0.84170542201089
C        28.65339599417328    0.06224304210603    0.00995238165685
C        29.87342966689572    0.06938705786134    0.01049123950755
C        31.20952695902355    0.07501449985220    0.00683963705739
C        32.43401005972483    0.07332150516096    0.00680937459990
C        33.76996035239672    0.07213482114803    0.00116596519314
C        34.99020665899613    0.06778214791840   -0.00234735990902
C        44.67240134153930    0.03578845982763   -0.01860566346651
C        45.89273593834859    0.03435849266928   -0.02027233870812
C        47.22821551229915    0.03255885934581   -0.02005086009641
C        48.45284453657393    0.03457809707732   -0.01964423653129
C        49.78830829332824    0.03452224264984   -0.01863629615833
C        51.00863314185665    0.03534369300137   -0.01898314371768
C        60.68673032811591    0.04053753188046   -0.02007810358464
C        61.90704711795003    0.04217562308551   -0.02065264566098
C        63.24250218677828    0.04192318969010   -0.01886556774964
C        64.46713187056477    0.04387174105677   -0.02172137699505
C        65.80259877954165    0.04194361615274   -0.02078211023023
C        67.02291472439838    0.04005891574293   -0.02148271208896
C        76.70473977059179   -0.00847038705762   -0.01810223565752
C        77.92491633253093   -0.01641762497826   -0.01677958202278
C        79.26095694702393   -0.02391702104317   -0.01441763478896
C        80.48535758286476   -0.02974163091887   -0.01061926236532
C        81.82157944999847   -0.02823075867843   -0.00754042289991
C        83.04155620699653   -0.02508583619041   -0.00366776575982
Cu       39.83177739909081    0.05087305652462   -0.01894877239143
C        37.33274207398820   -3.37249894777499    0.37743361605924
C        36.36979842002036   -2.42545845807670    0.27572197164769
C        37.04554357249154   -1.16827100497726    0.13000458259305
C        36.38614419299450    0.06285176872177   -0.00847832437265
C        37.05335564582918    1.28901154843251   -0.15335936879410
C        36.38552989165098    2.55040679399578   -0.29934006666687
C        37.35444761452211    3.49022028332588   -0.41080899906195
C        38.61008744529219    2.80026235957054   -0.33252311360661
N        38.39336703705748    1.46566348498587   -0.17713549110886
C        39.84224469443251    3.42446456409076   -0.40461222378202
C        41.07070979610680    2.79305557426036   -0.33147028275393
C        42.33064074621620    3.47524642041365   -0.40689290577075
C        43.29361251492895    2.52886286083288   -0.29874004885791
C        42.61766466394116    1.27132351396586   -0.15797965223573
N        41.27884804699370    1.45662265309932   -0.18021481044615
C        43.27684967440916    0.03988157306351   -0.02013930461185
C        42.60977052009862   -1.18744498011140    0.11619346045502
C        43.27778358219796   -2.44955333269071    0.25352037789525
C        42.30892791453500   -3.39023050325154    0.35869922769739
C        41.05329278711635   -2.69982433556864    0.28596168391667
N        41.26984826560370   -1.36438083921113    0.13822461025818
C        39.82097069570693   -3.32360440898713    0.35947748801498
C        38.59271269319215   -2.69102166880395    0.29432705100139
N        38.38439274920488   -1.35444024507586    0.14464986045851
H        37.21930494578598   -4.43251076341170    0.49756217100217
H        35.30389488164725   -2.54526570190779    0.29479607112648
H        35.32035357300978    2.67748905845640   -0.31241196711868
H        37.24771591198265    4.55053836149122   -0.53432800317918
H        39.84533150374533    4.49813081472100   -0.52762962916917
H        42.44442181744279    4.53522018540421   -0.52637542367823
H        44.35952069333732    2.64919552749215   -0.31088665149964
H        44.34294930069380   -2.57662693411850    0.26503241959566
H        42.41604699722635   -4.45131673743252    0.47481322674987
H        39.81750429538473   -4.39769248777193    0.47875625818341
Cu       55.84768891868863    0.03780110422444   -0.02086557206593
C        53.36131561776816   -3.39495383711242    0.37799764579248
C        52.39547866821442   -2.45189721149349    0.26690830426508
C        53.06756665030703   -1.19266898876808    0.12197914947273
C        52.40418795195701    0.03600259709596   -0.01973408312080
C        53.06633458435847    1.26526225768214   -0.16192180135939
C        52.39290441356847    2.52369593207683   -0.30681664281982
C        53.35768528191760    3.46768067213331   -0.41914810586978
C        54.61625648837760    2.78307111495716   -0.34241877733229
N        54.40547534216510    1.44761858084054   -0.18573105929753
C        55.84587824695102    3.41146346567734   -0.42089788870479
C        57.07627198136044    2.78368351092775   -0.35017152115938
C        58.33408843104147    3.46866442101598   -0.43544500922855
C        59.29992225472336    2.52570610391178   -0.32344905936362
C        58.62783809201888    1.26753026003395   -0.17016018779357
N        57.28851544750550    1.44887182401294   -0.19010349532911
C        59.29119051641073    0.03977053919596   -0.02075466818446
C        58.62906603384298   -1.18872720756718    0.12813256263558
C        59.30253490083584   -2.44625566753089    0.28099285858154
C        58.33774144864474   -3.39033522326870    0.39244632597595
C        57.07916774984354   -2.70670624701219    0.30740993365902
N        57.28993746207369   -1.37158996964523    0.14778120983880
C        55.84953078946242   -3.33596909799617    0.37823002583205
C        54.61914215897603   -2.70899049626375    0.30075554644889
N        54.40688300668567   -1.37366839748588    0.14482698757879
H        53.25097720596027   -4.45499568986062    0.50077911623553
H        51.32989427043972   -2.57556507794260    0.27942521204659
H        51.32717969319752    2.64624739975790   -0.31863025337031
H        53.24620026335285    4.52752350077330   -0.54252429792739
H        55.84518964233600    4.48461634158215   -0.54820214581279
H        58.44445334495376    4.52806755599335   -0.56347637486177
H        60.36551658840639    2.64882522563423   -0.34034460808180
H        60.36825769964410   -2.56820709715917    0.29791150355157
H        58.44924532133944   -4.44967286481591    0.52012290603627
H        55.85020040306252   -4.40918505153492    0.50502403242453
Cu       71.86320048595957    0.01624472961299   -0.02072232560168
C        69.35777146316634   -3.39913896873957    0.40188538794853
C        68.39676291254575   -2.45146662584399    0.28804008445426
C        69.07528747696712   -1.19723356491687    0.13068468064560
C        68.41845336185281    0.03377916039104   -0.02136137251439
C        69.08773504773397    1.25800366832995   -0.17284464921903
C        68.42211651341512    2.51911776288778   -0.32938668523070
C        69.39273769914092    3.45704216859335   -0.44254969627971
C        70.64709477332805    2.76603316167301   -0.35457033797439
N        70.42801982162952    1.43271736258140   -0.19185553703604
C        71.88064982857671    3.38761757453652   -0.42573258322071
C        73.10760447290589    2.75419584228973   -0.34545944530483
C        74.36896613090074    3.43391341081707   -0.42203331090443
C        75.33005026235256    2.48645578815415   -0.30740369686936
C        74.65175057007129    1.23059440724829   -0.16170006006021
N        73.31319454805372    1.41824131418149   -0.18679439488563
C        75.30865445952310   -0.00146679242486   -0.02025169211043
C        74.63912079198177   -1.22680604755792    0.12048649254352
C        75.30450082729453   -2.48946790362751    0.26631545720696
C        74.33380855935825   -3.42706595555624    0.38080739650564
C        73.07951944398722   -2.73447729071885    0.30425229398001
N        73.29875875165833   -1.40074639834157    0.14537108037896
C        71.84617206344878   -3.35522918364251    0.38502375937696
C        70.61909422252296   -2.72098674646087    0.31372914485463
N        70.41368293012121   -1.38559314121812    0.15023793578871
H        69.24189769988031   -4.45752583709249    0.53304410021900
H        67.33059315809150   -2.56902153166156    0.30611006923236
H        67.35717044717228    2.64745206673575   -0.34773049744978
H        69.28765330475036    4.51667693701451   -0.57315494262074
H        71.88632090796061    4.46053502039317   -0.55504032923922
H        74.48455335482952    4.49316427852593   -0.54686521439320
H        76.39624457900439    2.60498879227397   -0.31857884272649
H        76.36937894928626   -2.61892087142687    0.27743533386061
H        74.43850064583492   -4.48744425080434    0.50554232837433
H        71.84082348573966   -4.42807376224666    0.51487782513765
