118
 energy: -199.825871422709 gnorm: 0.000825995113 xtb: 6.4.1 (bd6e46d)
C        18.33820712799312    3.42052777315407    0.24262861468854
C        19.29386399431440    2.47187438635239    0.19839063966196
C        18.59341461535227    1.20525063846815    0.08164748117510
C        19.25484552463444   -0.03718396751665    0.00918888287217
C        18.60405679218296   -1.27761081012824   -0.09580330716165
C        19.20804336132421   -2.56113561711134   -0.17119837647659
C        18.20474089743315   -3.48169752731072   -0.27015689403309
C        16.96667548747457   -2.77988940077425   -0.25801081472112
N        17.26053766292497   -1.45435438397755   -0.14976234079553
C        15.69898596823872   -3.33626542059201   -0.34421791490524
C        14.48335857799331   -2.66640297644971   -0.33808500119717
C        13.20529962691615   -3.35651453408244   -0.43801704812310
C        12.25824044014441   -2.40115271054246   -0.39898276315629
C        12.96498742203593   -1.13549691426973   -0.27578938571766
N        14.29974605259959   -1.33320063845422   -0.24268543047265
C        12.32022844873618    0.09291589618381   -0.20360727672592
C        12.94555540698983    1.32484064478742   -0.08813836936818
C        12.34036676311307    2.61185079266135   -0.01021292433933
C        13.34040926535319    3.53305192075846    0.09258291849586
C        14.58214420232307    2.83332781201459    0.08008747766223
N        14.29137316348765    1.51033717741278   -0.02965927006317
C        15.85015732638010    3.38914347564553    0.16333072090677
C        17.06661949638061    2.72311740501589    0.15146474367890
N        17.26271388195698    1.38599587905717    0.05650211981610
H        18.44609033135941    4.48483830072797    0.32713493529891
H        20.36042206386957    2.57970596636909    0.23937477304450
H        20.26538336965276   -2.74047793604373   -0.15186720853018
H        18.30255969241168   -4.54716962784176   -0.34581363602152
H        16.58634932872811   -0.69850062661159   -0.11610169804881
H        15.65600246407062   -4.41349970139896   -0.42698528028826
H        13.09162770178746   -4.42021528550675   -0.52462737496404
H        11.19081969969157   -2.50210744231172   -0.44609923006711
H        11.24042428414049    0.08816968271529   -0.24070796179846
H        11.28327048972819    2.79309730065007   -0.03106064793375
H        13.24176622998980    4.59852884764074    0.16998228877187
H        14.96259896234599    0.75268830763846   -0.06554323351826
H        15.89462330499900    4.46643776881774    0.24600084754393
C        40.34049500527269   -3.39891512336330    0.47847497871496
C        39.38489060837497   -2.45056213615647    0.42747678579756
C        40.08371448454320   -1.18880926810289    0.25929264694434
C        39.42093979187479    0.05140349331106    0.16414169985064
C        40.06900578689256    1.29101475925294    0.03479109034142
C        39.46285113144859    2.57379619339448   -0.03605587603037
C        40.46364991527645    3.49493703503808   -0.15351910924814
C        41.70209179829589    2.79386796624616   -0.16155534633385
N        41.41124860721823    1.46863205701187   -0.04193587525094
C        42.96766077222345    3.34868048365448   -0.28184101409541
C        44.18084891814816    2.67520531392212   -0.31588301622849
C        45.45636273478078    3.36045574454736   -0.46756218611723
C        46.40025441467876    2.40119610852698   -0.47014191724164
C        45.69444305030810    1.13839653013792   -0.31586640945642
N        44.36305302406830    1.34133309898844   -0.22680798592483
C        46.33776525244843   -0.09184196976901   -0.26588686502035
C        45.71630044536982   -1.32079648080054   -0.10625380619965
C        46.32354872617992   -2.60715682435096   -0.03369166925961
C        45.32917660997852   -3.52462183305894    0.13587489791997
C        44.08879904946168   -2.82335362794592    0.16866307828097
N        44.37464376671820   -1.50320571530001    0.01896923153641
C        42.82513364850058   -3.37494442397412    0.31932401474647
C        41.60998016048549   -2.70675185134243    0.33442963252884
N        41.41314890056347   -1.37212296839308    0.20876705493344
H        40.23362426173114   -4.46007785441165    0.59694139860968
H        38.31948163783969   -2.55537565743316    0.49665331049103
H        38.40591608383981    2.75255942868697    0.00155433890508
H        40.36375904821748    4.56014254610022   -0.23009268971149
H        42.08758930936675    0.71444330109699   -0.01691643679539
H        43.01036832261966    4.42566351578278   -0.36745815977885
H        45.57049771408421    4.42378166351964   -0.55811560708790
H        47.46510866722130    2.49790534033807   -0.56243227653775
H        47.41465166890057   -0.09075041828925   -0.35373704705831
H        47.37825322676303   -2.79044246632212   -0.10237104771004
H        45.43077453902696   -4.58851647400918    0.22955689184236
H        43.70187787136194   -0.74635288248424    0.00115085334360
H        42.78290935565536   -4.44981218238777    0.42965992347915
C        20.65105623729532   -0.04195829475811    0.03622761885278
C        21.86958817151717   -0.02866151091440    0.05715201154782
C        23.21030486308725   -0.02128690649617    0.07122568946987
C        24.42902020583465   -0.00236816484527    0.07778037204531
C        34.24708768253674    0.01418115434594    0.15636907534245
C        35.46565003939383    0.03135396298178    0.17954135277271
C        36.80613380548041    0.04731718419518    0.18894848045900
C        38.02493434100703    0.05415779739144    0.19100425502128
C        26.81965493818563   -3.40430764024063    0.51499337079367
C        25.84050850330748   -2.48661598542285    0.39355783278479
C        26.50995308760248   -1.20903457616390    0.23413969822597
C        25.82414839638781    0.01259433545324    0.07973405860901
C        26.46572561902693    1.25378994105868   -0.07126845727356
C        25.86252773483110    2.52821153588797   -0.23286941874407
C        26.86914179248386    3.44427796270468   -0.34804625843014
C        28.10653632365974    2.74784705653129   -0.25812709710345
N        27.81036146699531    1.42949508225077   -0.09115060856755
C        29.37205597285787    3.31429654246372   -0.32796100178312
C        30.60234947421131    2.68320790994760   -0.23950317761491
C        31.85748847317225    3.41053546663067   -0.32666187977355
C        32.83647024756051    2.49402416173244   -0.19535294955797
C        32.16682085179685    1.21711611879232   -0.03151528580842
N        30.83160209232586    1.35944107295622   -0.06313565248717
C        32.85235801806040   -0.00295850133473    0.13618886845430
C        32.21088620085202   -1.24457194717114    0.28405632513722
C        32.81429996960741   -2.51850088839383    0.44872428479611
C        31.80791846255887   -3.43609857677265    0.55302511719040
C        30.57043252669878   -2.74096847336194    0.45449620795916
N        30.86641628072131   -1.42197583625231    0.29212163011781
C        29.30491528982472   -3.30825132808916    0.51598989119769
C        28.07468679176074   -2.67678472261869    0.42827454588407
N        27.84534911071235   -1.35218855271706    0.25874908688432
H        26.73765110563706   -4.46566868174545    0.65041402757435
H        24.77634287506715   -2.62194869770411    0.40649483388946
H        24.80505290910973    2.70576811327148   -0.25676724374705
H        26.77336639934967    4.50417915566031   -0.48221736436665
H        28.46894917584853    0.66434388571221    0.00540413125920
H        29.39787444375787    4.38663565913943   -0.46762332604795
H        31.93973610031790    4.47114386008969   -0.46761683900704
H        33.90064060765542    2.62964059906748   -0.20475954622655
H        33.87174365235700   -2.69487801921677    0.48044208042557
H        31.90396711970071   -4.49609374406774    0.68591735440267
H        30.20774267910758   -0.65752113531263    0.19087030662253
H        29.27886500569334   -4.38107394588990    0.65180164268939
