193
 energy: -336.212834433390 gnorm: 0.000482379074 xtb: 6.4.1 (bd6e46d)
Zn       28.94266434270885    0.00606941151021   -0.01047807952324
C        31.47912123247594   -3.42621638884531    0.00932723033289
C        32.43146122275428   -2.46237960283191    0.01131376367319
C        31.74127508417114   -1.20416011843824    0.00659857471685
C        32.37893662381052    0.04735589502430    0.00617876308763
C        31.71150398427442    1.28309253372381    0.00278690624313
C        32.37131373508722    2.55751690589006    0.00745120819814
C        31.39610020569230    3.49821922141819    0.00294798767687
C        30.14403522561122    2.79620569064194   -0.00499089776565
N        30.36777572441065    1.45184290817943   -0.00410627296306
C        28.90219049764950    3.40908313398667   -0.01433099844385
C        27.67591868243414    2.76544431839960   -0.02400828357223
C        26.40197881247848    3.43206375206862   -0.03627783388546
C        25.45607762296527    2.46415712716588   -0.04307721681252
C        26.15143274339632    1.20527397254375   -0.03454375456696
N        27.49307528981989    1.41894630416891   -0.02342839559409
C        25.53413355267113   -0.03497958178999   -0.03645353090683
C        26.18098599305646   -1.26003559175800   -0.02759143368707
C        25.51602373907239   -2.53529637019095   -0.02880263236237
C        26.48489756556512   -3.48016568178012   -0.01853292199177
C        27.74247867082152   -2.78307428600861   -0.01131766172463
N        27.52738613356708   -1.44136738017518   -0.01679876546263
C        28.98385253126373   -3.39704309103653   -0.00192484102133
C        30.21058634253937   -2.75445617183396    0.00301118973131
N        30.40198874887171   -1.40509953019340    0.00157158900476
H        31.60859809965046   -4.49133957264200    0.01141979247718
H        33.49839426303446   -2.57469593580431    0.01521492582085
H        33.43527919044178    2.69526995619655    0.01399098365460
H        31.49991045614992    4.56614647034994    0.00461667530905
H        28.89006318110323    4.49021960316922   -0.01495911632745
H        26.26871695408413    4.49692409078164   -0.03940043051086
H        24.38848019540481    2.57291171815519   -0.05284904669043
H        24.45322274948703   -0.04798816925724   -0.04534578540429
H        24.45132337631772   -2.66973755059701   -0.03654383713231
H        26.37729477174366   -4.54793626188361   -0.01613362158762
H        28.99775921392832   -4.47815093170296    0.00072555354281
Zn       82.75420097771071    0.03721958572960   -0.00986991311128
C        80.22569087211517    3.41902876109410    0.60978828278657
C        79.27111521744577    2.47363344747271    0.43392643723277
C        79.95845674597074    1.23354097330717    0.21129239676149
C        79.31791649043697    0.00212780755912   -0.00317333462365
C        79.98233653538708   -1.21647602636604   -0.21692636970573
C        79.31968220349506   -2.47073308656750   -0.43423110133850
C        80.29273019328950   -3.39713650909995   -0.61004150983686
C        81.54635259870268   -2.70653398078031   -0.50017709396501
N        81.32571237591706   -1.38353777450768   -0.25878320988487
C        82.78665265636181   -3.30882340082373   -0.62976399316901
C        84.01431610083033   -2.67538059958883   -0.53141008570698
C        85.28658802198983   -3.32992764951901   -0.67390693477522
C        86.23474935894855   -2.37908913660378   -0.50501792593224
C        85.54246868984363   -1.14278898033129   -0.25886281694085
N        84.20036469825196   -1.35243944161945   -0.28306820049391
C        86.16276301957484    0.07404488891133   -0.02692868428628
C        85.51881600255051    1.27695849058347    0.21289828739072
C        86.18675611297704    2.52765122161051    0.45369827081902
C        85.22006376912636    3.45718641437053    0.63556913498633
C        83.96083793512508    2.77539284226498    0.50545230558366
N        84.17280856294705    1.45729730414177    0.25221881498331
C        82.72089544722857    3.38224020930482    0.61643977046918
C        81.49269405721138    2.75442824069422    0.49324280562168
N        81.29824221640371    1.42774990002522    0.24935469591743
H        80.09867207372579    4.46720885879910    0.80065238075113
H        78.20442684040343    2.58709118501703    0.45167523796090
H        78.25542475109010   -2.60582062526772   -0.44810458370229
H        80.18648614947533   -4.44829145985635   -0.79729811125267
H        82.79622927714794   -4.37189144756658   -0.82672863684163
H        85.41729476432756   -4.37579872893696   -0.87573595682065
H        87.30201816302927   -2.48571987919156   -0.53995421587977
H        87.24370567832305    0.08585835306841   -0.03314515217663
H        87.25179188469779    2.65756084298829    0.47665563620109
H        85.33015228539544    4.50527131024048    0.83822127867229
H        82.70947726271713    4.44474920600611    0.81628299258646
C        33.77756676850393    0.06262681959968    0.00795934597780
C        34.99587113654158    0.06825090680823    0.00694360517176
C        36.33790459773816    0.07241928453164    0.00402483707793
C        37.55625412367017    0.07169708498106   -0.00082268051772
C        47.23090731432478    0.04581895572998   -0.01972225472314
C        48.44960541111258    0.04282207342721   -0.01997428024615
C        49.79140398793727    0.04092153792275   -0.01991848510223
C        51.01012050621377    0.04027096447254   -0.01990095518662
C        60.68611004880836    0.04399791376666   -0.01952365530375
C        61.90479549418012    0.04336827311053   -0.02075801060750
C        63.24659556157386    0.04035609449633   -0.02180063615689
C        64.46525908751860    0.03735176634126   -0.02226350234450
C        74.14017248646826   -0.00972394921494   -0.01067499055838
C        75.35849990994299   -0.01292328397316   -0.00993505531832
C        76.70074627086834   -0.01318014798198   -0.00631494750743
C        77.91901577148322   -0.00938130568478   -0.00448725215546
Zn       42.39342340604604    0.05856241199396   -0.01461097077473
C        39.89039147993518   -3.37280619271436    0.39060769571757
C        38.92811311490028   -2.42451789744254    0.28364992696984
C        39.60535578686352   -1.16843596227450    0.13539149834031
C        38.95436086518279    0.06848980575945   -0.00529561571738
C        39.61152801027206    1.30142332075987   -0.15095687642322
C        38.94067020195428    2.56103433272872   -0.29769124510841
C        39.90774228986709    3.50352415401280   -0.41248335725148
C        41.16504051761211    2.81668395573060   -0.33496023150398
N        40.95359877517222    1.47961833362091   -0.17617446146304
C        42.40196631277842    3.43392191799412   -0.41129637944815
C        43.63553001991079    2.80960347809043   -0.34053889188718
C        44.89623322672966    3.48961521903440   -0.42293049188191
C        45.85862285575546    2.54182604429419   -0.31277416027288
C        45.18159781426503    1.28571714929284   -0.16368094667422
N        43.84049525792187    1.47116197949391   -0.18331956682703
C        45.83296678131628    0.04922857908416   -0.01914552354093
C        45.17541467001994   -1.18388678182424    0.12586794702372
C        45.84605560184501   -2.44380796189241    0.27170474998098
C        44.87883967344098   -3.38663070200178    0.38220716112916
C        43.62160704240310   -2.69971887248736    0.30382991258557
N        43.83338083543858   -1.36217935855644    0.14815012878511
C        42.38484554333318   -3.31735732376434    0.37749687568339
C        41.15111799533722   -2.69298673894523    0.30781938723231
N        40.94646476479337   -1.35439628107176    0.15286528292645
H        39.77190057202910   -4.43199209061164    0.51412422813919
H        37.86236733873313   -2.54611891513848    0.30162321553834
H        37.87552222717473    2.68861159953860   -0.30999716681945
H        39.79460443157996    4.56309275478509   -0.53788399817941
H        42.40473878675777    4.50774747659043   -0.53814091544810
H        45.01448658412728    4.54868430722825   -0.54791942512284
H        46.92438528456901    2.66385429244506   -0.32888988294768
H        46.91118186723606   -2.57153889355097    0.28550020774751
H        44.99167536922366   -4.44650475465017    0.50525096805351
H        42.38208071038814   -4.39144460227554    0.50210338535056
Zn       55.84807432846105    0.04216376595674   -0.01973490042533
C        53.35554379119395   -3.39463812129882    0.40322843281389
C        52.39015124789616   -2.45005154669851    0.29134613302528
C        53.06319210728189   -1.19291653595115    0.13372348694227
C        52.40804918282548    0.04048233019856   -0.01968543182594
C        53.06211721004236    1.27450844779809   -0.17277592517460
C        52.38786787652456    2.53104070903096   -0.32994548433890
C        53.35234072561740    3.47659694403623   -0.44148207715750
C        54.61148858227090    2.79469248040111   -0.35216788874477
N        54.40362952035593    1.45727940558244   -0.19059725926934
C        55.84649750779626    3.41680514313572   -0.41819125377941
C        57.08213143984975    2.79761064002446   -0.33777767166948
C        58.34061527935430    3.48279603454388   -0.41003709392487
C        59.30604321613363    2.53818205799126   -0.29865234027225
C        58.63301080019503    1.27887022768868   -0.15895671692351
N        57.29129579319748    1.45951224573686   -0.18366577964343
C        59.28816426930044    0.04367319803872   -0.02067249147866
C        58.63404782830975   -1.19200503208487    0.11825524453923
C        59.30825047605647   -2.45051785894211    0.25845461049551
C        58.34378443042037   -3.39601859067535    0.37049253595867
C        57.08465185556287   -2.71206497637663    0.29853281349838
N        57.29253409334437   -1.37386367648190    0.14375166453123
C        55.84965838042157   -3.33242790843181    0.37957775099541
C        54.61403347325678   -2.71154023886951    0.31358749490983
N        54.40488946028058   -1.37438132973297    0.15159316603257
H        53.24058323638548   -4.45335503325660    0.53397897355918
H        51.32480095335048   -2.57490743342782    0.31145476393505
H        51.32240579377132    2.65488017101122   -0.34994923837545
H        53.23633346913152    4.53523909775403   -0.57182059880298
H        55.84594896267916    4.49065197323393   -0.54494275881532
H        58.45553787827902    4.54281529949895   -0.52978623884532
H        60.37139442203276    2.66428997578201   -0.30836560550562
H        60.37370904182899   -2.57564292405167    0.26770480057396
H        58.45977880426662   -4.45589026667368    0.49049071729029
H        55.85021779164487   -4.40623111001732    0.50669907209700
Zn       69.30272879614019    0.01376877971584   -0.01761732598027
C        66.79143163651035   -3.41160783660373    0.38508179443710
C        65.83141627678071   -2.46134212451465    0.27561600792251
C        66.51150440576234   -1.20698061233333    0.12655327645263
C        65.86322094305230    0.03085505410861   -0.02008631125216
C        66.52392313514608    1.26213496660832   -0.16645480949442
C        65.85648695370932    2.52320880161844   -0.31752952588243
C        66.82612248654583    3.46377996064943   -0.42604976628527
C        68.08161362804694    2.77444054146561   -0.34092883731751
N        67.86642342601543    1.43752647817554   -0.18451954968390
C        69.31995665092855    3.38987178199006   -0.40634907371001
C        70.55210845800980    2.76351224147730   -0.32702936555392
C        71.81455336649093    3.44157694038957   -0.39790410905939
C        72.77449372328307    2.49152019053271   -0.28587358645794
C        72.09410332776808    1.23590250019355   -0.14762760168934
N        70.75340646848734    1.42423626298732   -0.17382374967699
C        72.74182974914193   -0.00328737572789   -0.01296901641045
C        72.08157073022062   -1.23591386717959    0.11979863804430
C        72.74927819699225   -2.49798728434609    0.26006019598196
C        71.77985004435861   -3.43880229604751    0.36827033408201
C        70.52424941847956   -2.74840754692704    0.29402783842490
N        70.73901430456647   -1.41110449387586    0.14213184202279
C        69.28579106985333   -3.36264205286476    0.36964750562427
C        68.05381398073017   -2.73483676957041    0.30209462182731
N        67.85215859618839   -1.39578582510137    0.14607844812291
H        66.67055012892713   -4.47036368067341    0.51006122918429
H        64.76537291061943   -2.58065019848555    0.29235406598239
H        64.79167540357462    2.65314034252324   -0.33556868782146
H        66.71599350127157    4.52365772474864   -0.55147609716503
H        69.32547986265250    4.46394745988488   -0.53098753372273
H        71.93570178135317    4.50089665598592   -0.51765669768395
H        73.84054750473751    2.61151555783844   -0.29545860011622
H        73.81412612205700   -2.62819639738857    0.27289423034108
H        71.89031664100388   -4.49938729747710    0.48759612751504
H        69.28031527228951   -4.43680491350636    0.49348936852650
