74
 energy: -130.916918163353 gnorm: 0.000282633758 xtb: 6.4.1 (bd6e46d)
Fe        9.30251568984254   -0.06156022043645    0.07233502300745
C        11.82543675198625   -3.42608620364779    0.80189346097307
C        12.73667074456801   -2.43809633713842    0.64521482705802
C        12.00512137025524   -1.24341825449722    0.33601224744742
C        12.63508302091253   -0.02839564437620    0.04509597264809
C        11.97660171670470    1.17427083873219   -0.23387138175786
C        12.67912943895446    2.38367777966750   -0.55320694620664
C        11.74590341572973    3.35345206317871   -0.69365434424675
C        10.47675002050674    2.72928634077385   -0.47239473169140
N        10.63048804141614    1.39583011876466   -0.20994463369409
C         9.26265606908720    3.38583629233137   -0.50176347770409
C         8.06354291879854    2.72793189488607   -0.31966445104772
C         6.77187893940123    3.35006846497271   -0.34951683295394
C         5.86662785953135    2.35959502485951   -0.18445105881420
C         6.60764825545426    1.13552890517372   -0.05234071803235
N         7.95006519137743    1.38135424567117   -0.12565170221768
C         5.99817643712121   -0.09497299565587    0.09667589790540
C         6.63448564971483   -1.31287180130095    0.23684346114817
C         5.92038918007179   -2.55161345297677    0.37994961699890
C         6.84780066314483   -3.52345322424919    0.53232279983315
C         8.12601452604623   -2.87531245873384    0.48361208902903
N         7.98251349471210   -1.53144472386813    0.29072922192458
C         9.34075541128219   -3.50863266092536    0.64844315584215
C        10.54070287501905   -2.82768228526179    0.60028182726504
N        10.66347988492556   -1.49171319703007    0.33425004161615
H        11.98919039895634   -4.46033413684669    1.03457620894482
H        13.80335698410480   -2.49057354807434    0.73908250284949
H        13.74293299572260    2.45787339449517   -0.66390766472531
H        11.88521845777858    4.39104183621977   -0.92739953553247
H         9.25218186957952    4.44989402078473   -0.68124670774399
H         6.60386179836083    4.40123547939807   -0.48348149628657
H         4.79604563517563    2.42708406311093   -0.15424205492410
H         4.91756276263512   -0.10589857245333    0.10447826859277
H         4.85106997040202   -2.64080252766909    0.36524206120686
H         6.70308848751569   -4.57772701867986    0.66905464806555
H         9.35459728917501   -4.57254638256235    0.82851025876613
C        14.04249312044919   -0.01469366330190    0.03177555736033
C        15.25443180858958   -0.00770023025862    0.01858314112358
Fe       19.99323557880837    0.06147695241633   -0.07242116380752
C        17.47621695396496    3.40328366839316    0.77145164431198
C        16.56575258569984    2.41219972306738    0.63043125245477
C        17.29379488419812    1.22544797381132    0.28449977311247
C        16.66168985164332    0.01053288154340   -0.00257793841992
C        17.31794614097749   -1.18639584751838   -0.30966202394106
C        16.61273189695185   -2.39726589594861   -0.61717699441457
C        17.54640350294559   -3.36125635818980   -0.79058693931917
C        18.81822342491155   -2.73186388130904   -0.60173422746809
N        18.66532017968052   -1.40109642658729   -0.32557691982857
C        20.03436774302185   -3.38151888774812   -0.67188902924196
C        21.23491511114465   -2.71804552275523   -0.52231502512917
C        22.52849044928612   -3.33243048280086   -0.59684443455092
C        23.43290718918298   -2.33768645628771   -0.45434248912096
C        22.68953861070807   -1.11880239948184   -0.29114306297085
N        21.34689110716421   -1.37207800409970   -0.32326399156574
C        23.29635833540119    0.11442395584067   -0.15428710584410
C        22.65785643232427    1.32744433274264    0.01517109295419
C        23.36895876996391    2.56949231212620    0.14379073558776
C        22.44149150453320    3.53419263642436    0.33602274768143
C        21.16628142468070    2.87844124515904    0.32571534617492
N        21.31114843704716    1.53718616948650    0.11636816399244
C        19.95415399169720    3.50249944556457    0.53825258585643
C        18.75723939542218    2.81472718026384    0.52280631556054
N        18.63344729069554    1.48114987410061    0.24539965914801
H        17.31424406616967    4.43367001274902    1.02183545297593
H        15.50220617103084    2.45750017228876    0.75782840073183
H        15.54656697423949   -2.47629522097477   -0.69756815925554
H        17.40570796606742   -4.39802814789555   -1.02713045408159
H        20.04510517358135   -4.44426985759928   -0.85896138781077
H        22.69813845781043   -4.38174238966164   -0.74278170855883
H        24.50427349147901   -2.39910239515278   -0.45846337691662
H        24.37656831229564    0.13186395587627   -0.18175135734960
H        24.43658029219960    2.66554608653903    0.09308978489734
H        22.58444517969747    4.58822985160651    0.47633966649782
H        19.94015895669589    4.56446099371026    0.72946993115121
