115
 energy: -198.741677726787 gnorm: 0.000489548768 xtb: 6.4.1 (bd6e46d)
Zn       14.47500310500856    0.00011050561695   -0.00734732227096
C        17.01103864798104   -3.43232240038881    0.04534664302516
C        17.96353813266265   -2.46869304158554    0.04646760118606
C        17.27353204930703   -1.21036766127787    0.02619657333238
C        17.91148358085736    0.04098326060739    0.01420953347323
C        17.24439776624944    1.27688652565203   -0.00167776436362
C        17.90438871422227    2.55125500400906   -0.00900965926305
C        16.92930771682255    3.49203642770812   -0.01874074334258
C        15.67706708518750    2.79010694265251   -0.01783513719500
N        15.90068076794487    1.44580933247948   -0.00792664219798
C        14.43518305541294    3.40306886562579   -0.02468369844368
C        13.20875433862247    2.75960452381448   -0.02573843399334
C        11.93479118106985    3.42640634753769   -0.03319315614041
C        10.98874234203612    2.45865296205739   -0.03557058254996
C        11.68397515244799    1.19959000494590   -0.02957960364760
N        13.02567242237940    1.41312967117925   -0.02253132348748
C        11.06654133611733   -0.04061828217561   -0.03353641637250
C        11.71323412065294   -1.26585332699861   -0.02811176230344
C        11.04815113159939   -2.54113413188647   -0.03398097724485
C        12.01687971034368   -3.48611472346820   -0.02209451713184
C        13.27453334268275   -2.78911716817226   -0.00861813105883
N        13.05953653216039   -1.44736831337146   -0.01414244118184
C        14.51585088533355   -3.40302606449010    0.01090291976915
C        15.74265717678586   -2.76049329384364    0.02410665127010
N        15.93428808984577   -1.41123553024191    0.01499267722362
H        17.14029419889704   -4.49739980216834    0.05717108377065
H        19.03044948797332   -2.58115008885512    0.05947825755098
H        18.96843152292206    2.68878106017918   -0.00598157518328
H        17.03317752950942    4.55998894871448   -0.02580949171146
H        14.42317239634827    4.48419718106518   -0.03016761759872
H        11.80168132583240    4.49131399966729   -0.03640856979978
H         9.92109783874204    2.56753670118963   -0.04104410278491
H         9.98561553503031   -0.05345515292583   -0.04175941262024
H         9.98345858455639   -2.67545286775510   -0.04547950511420
H        11.90919995550807   -4.55392678497523   -0.02212925345932
H        14.52974041340942   -4.48412717147446    0.01631404150776
Zn       41.37632752684621    0.03109783756553   -0.00551869991698
C        38.85176465637861    3.40927246447600    0.65174316357220
C        37.89587267092414    2.46483429465351    0.47826931331061
C        38.58157954574676    1.22727504821051    0.23650480679684
C        37.93969637502067   -0.00110923790841    0.00882574901309
C        38.60260934276364   -1.21784383967079   -0.22045616718410
C        37.93818944310672   -2.46850276292082   -0.45303630724042
C        38.90994990705344   -3.39547476355164   -0.63261756522187
C        40.16463400774751   -2.70870870569075   -0.51016334007922
N        39.94575631809408   -1.38709456118422   -0.25987924374597
C        41.40432311343804   -3.31401683954424   -0.63165620364292
C        42.63294816634787   -2.68432807352772   -0.52145929135152
C        43.90458229882488   -3.34266535547404   -0.65270681142127
C        44.85396753950210   -2.39348940048281   -0.48157771363909
C        44.16311659063072   -1.15422730777161   -0.24593964478180
N        42.82069153902219   -1.36117594334426   -0.27552893996194
C        44.78481070415552    0.06376941974936   -0.02397416075906
C        44.14234628598773    1.26973821581119    0.20462921369018
C        44.81187235310053    2.52227342755210    0.43166989067863
C        43.84641127584585    3.45318973269625    0.61289849195824
C        42.58630108298716    2.77031643947395    0.49694246878486
N        42.79663418988421    1.45085988812607    0.24929234329192
C        41.34705252144814    3.37595064499662    0.62211100489507
C        40.11790754294366    2.74681041741860    0.51464081196519
N        39.92159808585417    1.42173111386641    0.26402401878749
H        38.72627165198505    4.45549897353331    0.85376847242239
H        36.82934144756878    2.57717275137205    0.50972336128286
H        36.87375248059871   -2.60095655949434   -0.47312105082440
H        38.80229861164897   -4.44466059456019   -0.82997444738895
H        41.41252873782319   -4.37656180380576   -0.83148737194944
H        44.03395749154937   -4.38975286985196   -0.84923321798003
H        45.92121704726559   -2.50291240261382   -0.50895927408408
H        45.86578026122874    0.07411586028346   -0.02978248120912
H        45.87705840873046    2.65227094807817    0.44681401729116
H        43.95784844513386    4.50283637172196    0.80682383893458
H        41.33696053407760    4.43846713130523    0.82202546217452
C        19.31009634045371    0.05536422881792    0.01636616948530
C        20.52836828130187    0.06164125389823    0.01228042141261
C        21.87041385458710    0.06371682100708    0.00712228939456
C        23.08880172186792    0.06034712282320    0.00009730518462
C        32.76210835726173   -0.01474606879080   -0.01002096977581
C        33.98039535733115   -0.01752852654523   -0.00350224134252
C        35.32260046591936   -0.01514370878897    0.00380839659600
C        36.54079274856752   -0.01227982064257    0.00796834896944
Zn       27.92534681422477    0.02173247928448   -0.01299566403845
C        25.40410062533791   -3.39742974224271    0.38227051089376
C        24.44703529385344   -2.44362405618973    0.27809609893781
C        25.13109285467308   -1.19088267388242    0.13296713499602
C        24.48687612750700    0.04993065752751   -0.00463307000872
C        25.15047789317442    1.27972919581851   -0.14731887571440
C        24.48614461799600    2.54330171682025   -0.29140849388708
C        25.45816327996032    3.48127882010817   -0.40070217201375
C        26.71188916337189    2.78784036938065   -0.32315740109984
N        26.49342519508335    1.45117821963960   -0.17004752269649
C        27.95196005111864    3.39942040129994   -0.39275288263559
C        29.18219899382108    2.76845703707471   -0.32091473006806
C        30.44675521603861    3.44224410733291   -0.39617311590109
C        31.40382178858916    2.48885754150502   -0.28854098759156
C        30.71965860306244    1.23550056458130   -0.14817887233688
N        29.37952349175466    1.42827676597659   -0.17028662551805
C        31.36377868292495   -0.00566393540860   -0.01416868740699
C        30.70031028380226   -1.23670558927370    0.11711179490267
C        31.36460596584755   -2.50106762841632    0.25428946181294
C        30.39259922476416   -3.43927656547536    0.36160486738498
C        29.13885504029002   -2.74520100333207    0.28958122689024
N        29.35731376789980   -1.40813538453656    0.14012051223144
C        27.89882891865716   -3.35616651121687    0.36473426210351
C        26.66860633585471   -2.72443990650306    0.29994786192492
N        26.47118090188404   -1.38428973375664    0.14904767243329
H        25.27983572005385   -4.45626543000003    0.50340949279408
H        23.38060194984210   -2.55942036295678    0.29623024513628
H        23.42167362186123    2.67629932012683   -0.30539071261676
H        25.35074361734580    4.54186408955285   -0.52231382281582
H        27.96052020065468    4.47380932147630   -0.51436103952735
H        30.57104518686812    4.50125790504811   -0.51553762610499
H        32.47026673591803    2.60517226230806   -0.30243040993598
H        32.42910134809679   -2.63438550282984    0.26572972607058
H        30.50003699913318   -4.50042413589266    0.47898311197585
H        27.89031852709905   -4.43058499399083    0.48614473165021
