271
 energy: -495.421858553354 gnorm: 0.000734745357 xtb: 6.4.1 (bd6e46d)
Co       43.48276911166361    0.00851582699092   -0.00642584136581
C        45.97841902978552   -3.40119983143555    0.07431906401500
C        46.93070392231787   -2.44192547657767    0.03743707683838
C        46.24059469488561   -1.18859100148949    0.01034572930926
C        46.90522502322354    0.03915652952370   -0.01068690394436
C        46.21873512437704    1.25486911800752   -0.00023588972384
C        46.88627175856017    2.52053202762166    0.01838950243833
C        45.91695310456807    3.46281280129440    0.04952084572972
C        44.66853801632099    2.76270201283609    0.04181171810247
N        44.86452173974254    1.40672421116967    0.01274159403521
C        43.44860866685235    3.40349551455357    0.04572434084424
C        42.24266924746154    2.73874098728394    0.00155078601626
C        40.97743663510088    3.41229221848924   -0.03257294977229
C        40.03220163274045    2.44977347888297   -0.09578119708036
C        40.72698325250727    1.19531912588070   -0.09141911277224
N        42.07961161916874    1.38180219453530   -0.03343307717844
C        40.08224798765870   -0.02242197584119   -0.12362972003728
C        40.74870720515135   -1.22813495324461   -0.08149053675512
C        40.07648012494708   -2.49480437407689   -0.07571389513484
C        41.03883905485175   -3.43974798130476   -0.00589154214784
C        42.29180423934054   -2.74341963334123    0.02228468314002
N        42.10446022340665   -1.38989252827237   -0.02276633600797
C        43.50945330566869   -3.38614837459661    0.07039071377932
C        44.71767988976791   -2.72364739421071    0.06180378364435
N        44.88933278047816   -1.36458862159173    0.02379788291742
H        46.09594137754049   -4.46695291320503    0.10355306317981
H        47.99807322434368   -2.54704519159854    0.03146056052448
H        47.95160207422141    2.64468099986838    0.01202755251909
H        46.01534990297543    4.53065726614051    0.07211419318234
H        43.43885699010662    4.48258288165117    0.07050767093406
H        40.85675684906262    4.47813166801920   -0.01354096110889
H        38.96511476886981    2.55201547284305   -0.13806642733989
H        39.00398859232266   -0.03227057217151   -0.16915776089751
H        39.01136999984216   -2.61644319923622   -0.11640373451098
H        40.93731560446377   -4.50740984721109    0.02133404238488
H        43.51905001445810   -4.46504064999916    0.10253468847122
Co      124.04666586697610    0.03977137142248   -0.00441294154729
C       121.55927827259757    3.40279101729241    0.59822230233713
C       120.60486175346122    2.46480243894202    0.40422189278197
C       121.29187234449208    1.22781180890527    0.19016428027357
C       120.62429120301016    0.01818815309501   -0.01096351049840
C       121.30769034532285   -1.18712485611587   -0.18223394590712
C       120.63711596473081   -2.43964193451838   -0.35382706142500
C       121.60427779774464   -3.37558795748551   -0.48424574752389
C       122.85435578801045   -2.68374819447842   -0.39770445260672
N       122.66157728854128   -1.34039351467405   -0.20726009754554
C       124.07240560593765   -3.31629104670170   -0.52034845577495
C       125.27939782572797   -2.65390348760387   -0.46969108667351
C       126.54228244197471   -3.31264973434096   -0.63328681301937
C       127.48987675113997   -2.35566185132760   -0.53250099438632
C       126.79888284099057   -1.12069289947023   -0.30065044629706
N       125.44602365165431   -1.31191713340280   -0.26876049823773
C       127.44731531673905    0.08085191136034   -0.11238881637325
C       126.78431549389990    1.26176043283844    0.14363448400858
C       127.46009010833700    2.50488462231886    0.37674494276539
C       126.49973338377664    3.42805105049247    0.59901942882931
C       125.24450390862891    2.74345976404511    0.49238781755371
N       125.42857440564414    1.41671112396863    0.21850199300408
C       124.02806384174190    3.37595169976241    0.62771149843022
C       122.81828637218838    2.73002551502062    0.49325866583691
N       122.64348130235489    1.39460531104466    0.24048406042224
H       121.44429639305282    4.45147473439145    0.79199838952650
H       119.53785531998102    2.57374462894882    0.40612213251565
H       119.57146672118246   -2.56044751513335   -0.36750951369277
H       121.50330669035439   -4.43346963681240   -0.62975573991877
H       124.07957368679347   -4.38428493585063   -0.67683199493784
H       126.65994361035425   -4.36529196368240   -0.80370534573706
H       128.55632724118061   -2.45056237780531   -0.60020889431345
H       128.52568365316594    0.09518380507726   -0.15388752415972
H       128.52592163089247    2.62672235842995    0.36865985235219
H       126.60401386582556    4.47441621125161    0.81158857117182
H       124.02095269720235    4.43494165435412    0.83655839648230
C        48.30323101353058    0.05083216708518   -0.02448779194651
C        49.52073181566023    0.05795957113252   -0.02702011695792
C        50.86324405633279    0.06310937534093   -0.03051352932851
C        52.08091182435740    0.06393228827327   -0.03364198162743
C        61.73087518822401    0.05551409703607   -0.02181203481694
C        62.94874130820964    0.05273753891333   -0.02264409020606
C        64.29090004615560    0.05142042909706   -0.02317468371121
C        65.50877705261614    0.04999908832991   -0.02284448569305
C        75.16011094127906    0.04373165509497   -0.01388263150674
C        76.37807336612138    0.04331898657522   -0.01440626901642
C        77.72037498412308    0.04267887646117   -0.01624281851320
C        78.93834386004720    0.04148369873928   -0.01657296162660
C        88.59091385596376    0.05115407019566   -0.01602576749074
C        89.80889953714703    0.04888329902034   -0.01602068286762
C        91.15121627394365    0.04761096834892   -0.01672045747943
C        92.36917076514800    0.04587220057147   -0.01453174221088
C       102.02069623962942    0.03890919867974   -0.02407616392048
C       103.23856718260441    0.03736010831817   -0.02494205227268
C       104.58075380457285    0.03572552283061   -0.02425510437353
C       105.79861343708738    0.03100740369898   -0.02245298292158
C       115.44841467623469    0.00681032917726   -0.03477840316882
C       116.66603001630702    0.00646675292319   -0.03478702216091
C       118.00863709258800    0.00821998914205   -0.03052166212517
C       119.22612349987295    0.01152360328522   -0.02310622232005
Co       56.90586729439015    0.06038893910085   -0.02386727410423
C        54.43451732137137   -3.34923841772511    0.34707827906453
C        53.47414670545063   -2.40367011001409    0.23681718106700
C        54.15399749200888   -1.15174436594763    0.10183058421742
C        53.47846167266762    0.06328582586537   -0.03051411048426
C        54.15646142278565    1.27729955578417   -0.15847842762593
C        53.47914043490678    2.53056388443325   -0.29351200243263
C        54.44145195490634    3.47491620133774   -0.39705030538486
C        55.69447344404986    2.78757643440793   -0.32406639727867
N        55.50897419862323    1.43775622752713   -0.17642672036359
C        56.90935505610478    3.43236724888298   -0.39896703176834
C        58.12287503549248    2.78434647286111   -0.33024204079332
C        59.37723811517888    3.46835536729755   -0.41040689472534
C        60.33765467498961    2.52224412848885   -0.30501699063414
C        59.65786981531210    1.27130156908826   -0.16146910896387
N        58.30571922225735    1.43462641062005   -0.17809025801979
C        60.33357221056056    0.05708708560733   -0.02176421674400
C        59.65539252645461   -1.15565703299901    0.11902865471781
C        60.33257838592323   -2.40764579091267    0.26580603684273
C        59.37018993802631   -3.35152182600866    0.37321671290454
C        58.11726641481045   -2.66521337045159    0.29026016647446
N        58.30291875973719   -1.31623246384194    0.13504339521162
C        56.90240506476574   -3.31079634114021    0.35795992525251
C        55.68891028947088   -2.66405769472381    0.27765591827084
N        55.50616921673573   -1.31426808659195    0.12618410889648
H        54.32629136733507   -4.40987905467943    0.46446019442325
H        52.40767163396686   -2.51714048428343    0.24414337405156
H        52.41285314252566    2.64562879136985   -0.30515395319089
H        54.33540030537689    4.53601678252407   -0.51233207343494
H        56.91048119306161    4.50523785952106   -0.51843559719386
H        59.48540251819004    4.52865773154783   -0.53083828800122
H        61.40413504866629    2.63491438224494   -0.31967153234602
H        61.39882463665518   -2.52247885776197    0.28145029570800
H        59.47612284861830   -4.41175127484613    0.49638618580246
H        56.90125726155569   -4.38337890027255    0.47996172045541
Co       70.33424341980758    0.04665082795531   -0.01968864786309
C        67.86364658452388   -3.35994034872943    0.38349437218013
C        66.90286284038331   -2.41488539257384    0.27202365594207
C        67.58221154712476   -1.16431634188358    0.12320812697024
C        66.90605895382421    0.04915068241432   -0.02118332117466
C        67.58404397175845    1.26171436149671   -0.16450894991884
C        66.90665864701526    2.51345832501215   -0.31249178951307
C        67.86891043710995    3.45704996824961   -0.42363205370856
C        69.12194541943164    2.77069195615883   -0.34250352961777
N        68.93649575324943    1.42219610590109   -0.18303155737117
C        70.33680869792333    3.41523803389305   -0.41971590318694
C        71.55057388263933    2.76848525744982   -0.34334961571640
C        72.80458879874953    3.45300761079869   -0.42480462623715
C        73.76550090155096    2.50840213322162   -0.31071330290001
C        73.08639629843947    1.25777139464276   -0.16139410559285
N        71.73411750398218    1.41993661717098   -0.18200671673136
C        73.76272150341656    0.04443927239491   -0.01631300524647
C        73.08446549857132   -1.16830519390906    0.12503282648778
C        73.76170966841526   -2.42034514322850    0.27111853781122
C        72.79938317138451   -3.36417358436492    0.37958887477798
C        71.54639642530313   -2.67766478971094    0.29928540525531
N        71.73198006633747   -1.32885869238399    0.14241925832688
C        70.33160148243226   -3.32247290712672    0.37575225607108
C        69.11775718905545   -2.67567861198376    0.30136104031774
N        68.93439474723992   -1.32686741234422    0.14200363648193
H        67.75579853214769   -4.41963991542349    0.50945920615457
H        65.83640758918669   -2.52801139760444    0.28625957924417
H        65.84038989620377    2.62829867398030   -0.32628047667401
H        67.76270757113265    4.51703479178440   -0.54857096203133
H        70.33775135257997    4.48720465308716   -0.54708887230734
H        72.91218296099626    4.51258728177960   -0.55206607211685
H        74.83193172875981    2.62187039192264   -0.32368991612207
H        74.82796750751841   -2.53526807138462    0.28536607781453
H        72.90539228345187   -4.42441001217944    0.50244498448901
H        70.33080404690762   -4.39465076631896    0.50135257451239
Co       83.76461021388499    0.04567170025566   -0.02176635852135
C        81.30026413948740   -3.36560396047233    0.37877008872396
C        80.33757440346103   -2.42222147514292    0.26953548723988
C        81.01435234983188   -1.17000710222909    0.12291530176324
C        80.33573076673801    0.04245356901949   -0.01866643897707
C        81.01186440787558    1.25599518476910   -0.16345851479481
C        80.33252165278554    2.50658264806888   -0.31227139210352
C        81.29326023676528    3.45143550017303   -0.42584940728752
C        82.54739905388114    2.76709338689908   -0.34484249552789
N        82.36409565593935    1.41846987412982   -0.18389716614981
C        83.76113397516848    3.41377151538869   -0.42223802604916
C        84.97618760844188    2.76952320759422   -0.34512530318286
C        86.22891088410223    3.45648694534318   -0.42620115760425
C        87.19161815346430    2.51368092854556   -0.31233217407188
C        86.51488022076316    1.26173393858101   -0.16335174417906
N        85.16229271032400    1.42132261657052   -0.18394863767613
C        87.19351341723768    0.04967220496999   -0.01859791303113
C        86.51735461285958   -1.16428564642543    0.12278499697102
C        87.19670184033124   -2.41517710281700    0.26903252742551
C        86.23596636846197   -3.36059869945558    0.37785808078211
C        84.98181693242670   -2.67623221733273    0.29730214210741
N        85.16513638563643   -1.32714891669929    0.14030761423704
C        83.76808080126928   -3.32317235492705    0.37259744025611
C        82.55301199552595   -2.67868222624025    0.29772631999430
N        82.36691586890797   -1.33003233476191    0.14035336628717
H        81.19461628174135   -4.42579276572591    0.50252016520644
H        79.27133523610125   -2.53750186822012    0.28365720236094
H        79.26608126807014    2.61990985223604   -0.32525283313531
H        81.18536932422946    4.51106501680360   -0.55233299908253
H        83.76004419196478    4.48569438313992   -0.55002049352703
H        86.33452800559618    4.51631259522845   -0.55303126024697
H        88.25784149297635    2.62916422550048   -0.32526532851673
H        88.26315177202798   -2.52834104361964    0.28307110283510
H        86.34384819110235   -4.42061364124053    0.50106217771302
H        83.76918650681938   -4.39540124408019    0.49780324207379
Co       97.19514034413184    0.04229183853999   -0.01975392293881
C        94.72551329809396   -3.36498264224372    0.38166753854590
C        93.76440343518411   -2.42001939139193    0.27233534898056
C        94.44322342764039   -1.16893709994434    0.12526935684411
C        93.76657384773947    0.04466095683505   -0.01628648379534
C        94.44456202502151    1.25707222201284   -0.16156985528814
C        93.76709492962084    2.50862901085999   -0.31053492308685
C        94.72926185634718    3.45197556210844   -0.42449709054275
C        95.98235488675635    2.76576484261901   -0.34354835458560
N        95.79702701212166    1.41741081139015   -0.18253605439577
C        97.19701679129284    3.41075776701015   -0.42042923108140
C        98.41101313073776    2.76453356819119   -0.34374957172357
C        99.66494943712932    3.44923476366615   -0.42484389325741
C       100.62596603744444    2.50443681834690   -0.31322826027931
C        99.94695393189184    1.25356606448891   -0.16560461223949
N        98.59471897404427    1.41579141183082   -0.18418437179365
C       100.62339747321462    0.04003032643700   -0.02327696030424
C        99.94564981878754   -1.17275257946107    0.11947280532945
C       100.62330259780092   -2.42456213739619    0.26584892039307
C        99.66124039639955   -3.36827893998467    0.37757969535928
C        98.40805631104013   -2.68194983081210    0.29837583750459
N        98.59322575630651   -1.33330727294466    0.13989563896050
C        97.19332070731562   -3.32681429361692    0.37521367859480
C        95.97939615446390   -2.68018658937210    0.30017587131609
N        95.79553532581787   -1.33128003928305    0.14225426704724
H        94.61817217258358   -4.42497041502487    0.50573732829912
H        92.69798662825241   -2.53350303359515    0.28688818850803
H        92.70082708409130    2.62360345800141   -0.32305488990800
H        94.62305183143729    4.51174493992811   -0.55115172045083
H        97.19755987561156    4.48272455182812   -0.54782145112039
H        99.77249343467005    4.50906439510614   -0.55003993625303
H       101.69239766008114    2.61788009391496   -0.32673436821740
H       101.68959010158974   -2.53939983194133    0.27815203473502
H        99.76769697690256   -4.42829369696552    0.50198808289953
H        97.19264544185366   -4.39894904289517    0.50117399358069
Co      110.62356068053884    0.01852117709562   -0.02757940230746
C       108.14757184443582   -3.38514221085455    0.36556745253232
C       107.18849900283267   -2.43684031790183    0.26797338867873
C       107.86994128510382   -1.18743155637862    0.11890573579811
C       107.19593124362903    0.02753511966899   -0.02258077017712
C       107.87586454301751    1.23922696922486   -0.16373659170218
C       107.20052121890501    2.49231944609323   -0.30949632271980
C       108.16423824052094    3.43597878201636   -0.40632558585491
C       109.41612761494143    2.74831309676131   -0.31911185629248
N       109.22854632290795    1.39852724721046   -0.17344283326524
C       110.63181086981353    3.39382238370386   -0.37101330493925
C       111.84431388950928    2.74518669688846   -0.29110196249174
C       113.09971435755551    3.42987199735169   -0.34633401209534
C       114.05869936997684    2.48131120914366   -0.25101507894865
C       113.37701257617326    1.22809447098452   -0.13883905842271
N       112.02507425442705    1.39293557177272   -0.16084407510144
C       114.05072748962709    0.00950120954490   -0.03358837080791
C       113.37108826693053   -1.20541090185165    0.07538001205154
C       114.04650525528852   -2.46208995666032    0.18638870932844
C       113.08285912276033   -3.40529418752599    0.28801177708721
C       111.83092387795804   -2.71391114252971    0.23783913499829
N       112.01836258469798   -1.36295159015346    0.10391799251694
C       110.61526399275421   -3.35585747619064    0.32408292245498
C       109.40281616055982   -2.70406242033825    0.27473893938845
N       109.22183451729386   -1.35367148716847    0.12641222006292
H       108.03798836415010   -4.44524209428300    0.48650838263377
H       106.12191232398870   -2.54707527296684    0.29126073858218
H       106.13448167271649    2.60805746389521   -0.33094957254235
H       108.05984183055352    4.49688366819921   -0.52487891464504
H       110.63448460901166    4.46770700256038   -0.48091095535683
H       113.20947105420673    4.49220062576293   -0.44578405805592
H       115.12535653797626    2.59341008703343   -0.25555832657955
H       115.11254867286036   -2.57993866793808    0.18590229697612
H       113.18740781389879   -4.46802040765742    0.38868124466762
H       110.61261310259698   -4.42953428227106    0.43600086281190
