283
 energy: -522.285421851079 gnorm: 0.000549785318 xtb: 6.4.1 (bd6e46d)
Cu       35.72643738158673   -0.00157879690759   -0.01207852808444
C        38.25169596122605   -3.42812234771055    0.04295800573178
C        39.20463601014271   -2.46588507623203    0.03890490056176
C        38.51607056233895   -1.20735730297729    0.01677815403876
C        39.16364849656377    0.03699249379487    0.00201119724958
C        38.48857148676072    1.26648459078121   -0.01482335970632
C        39.14891245496224    2.54014081306255   -0.02665722089447
C        38.17470650937672    3.48083164564773   -0.03453053359381
C        36.92264918032353    2.77972372056772   -0.02778065100896
N        37.14703423128179    1.43740014950608   -0.01688018487202
C        35.68686392903491    3.40132962362636   -0.02932744787003
C        34.46646462774279    2.74993896947783   -0.02593176656667
C        33.19387605236287    3.41872885627820   -0.02809587245589
C        32.24665589687743    2.45323713927873   -0.03050974091941
C        32.93944332759531    1.19334121597166   -0.02937888412073
N        34.27963862850060    1.40565995122447   -0.02496368500285
C        32.31177055146352   -0.03993053179214   -0.03582757049342
C        32.96695994614556   -1.25881434485548   -0.03163558712901
C        32.30265572868220   -2.53394941020387   -0.03742346585364
C        33.27121824426249   -3.47791807270632   -0.02250987396962
C        34.52837501993000   -2.78071111097234   -0.00819885999046
N        34.31149908649632   -1.44097729212218   -0.01584096507182
C        35.76291779235385   -3.40450714417099    0.01338371643672
C        36.98437613554056   -2.75528958311912    0.02300551892194
N        37.17874146966249   -1.40830859828767    0.00924479451126
H        38.37636878350585   -4.49352120922604    0.05765844495662
H        40.27170433845439   -2.57600504837000    0.04929272872501
H        40.21331568546827    2.67406680538645   -0.02810491308337
H        38.27557792522086    4.54881635442816   -0.04415882306628
H        35.67515134462571    4.48173186535739   -0.03434359519413
H        33.06662218319637    4.48414955856921   -0.02803635911502
H        31.17902201023663    2.56007507678323   -0.03254578592897
H        31.23162755196698   -0.05204954851121   -0.04394275638262
H        31.23777613542251   -2.66475033639366   -0.05103396682521
H        33.16793085002714   -4.54592769978027   -0.02126132598556
H        35.77540433874302   -4.48487280544598    0.02227843824984
Cu      131.80182080153156    0.03580462790255   -0.01201615971895
C       129.28489311513025    3.40807876917147    0.63233800746137
C       128.32949822761699    2.46415451109622    0.45853216219179
C       129.01487995265310    1.22624631953903    0.22112950289916
C       128.36419115634658    0.00444463535982   -0.00595866349476
C       129.03613945147191   -1.20569077833339   -0.23323096547358
C       128.37268611137881   -2.45634709462982   -0.46603376131468
C       129.34458464036547   -3.38326195891769   -0.64000077935175
C       130.59837902492791   -2.69677456127932   -0.51335100671199
N       130.37728859360104   -1.37659724145894   -0.26746321781647
C       131.83264502869417   -3.31107423240229   -0.62676219577163
C       133.05471960166295   -2.67338962598263   -0.51013615511899
C       134.32559017389730   -3.33444773457269   -0.63136161858573
C       135.27531067184552   -2.38638072829167   -0.46222304490594
C       134.58580106461019   -1.14490776863337   -0.23727706612578
N       133.24504850261349   -1.35104917023046   -0.27102378766948
C       135.21663325745081    0.06801387264474   -0.02311157269118
C       134.56452141536280    1.26860620267084    0.19669592775756
C       135.23199927279003    2.52253594617559    0.41905662469386
C       134.26573384831144    3.45200479485040    0.59745088580020
C       133.00678591657166    2.76724402374672    0.48369797142011
N       133.22038163809091    1.44923647747976    0.24037205804089
C       131.77372481304451    3.38166258514992    0.60910403492577
C       130.55055456108906    2.74485545845221    0.49996711898056
N       130.35276676196531    1.42141956448868    0.25174245724955
H       129.16295870226659    4.45515675346008    0.83135074636859
H       127.26268731108333    2.57409349948257    0.48498629476435
H       127.30795883067466   -2.58565832442164   -0.48908302117858
H       129.24112840740338   -4.43289504822429   -0.83600660894862
H       131.84163797928514   -4.37369026331964   -0.82221680485333
H       134.45003021992460   -4.38327798455281   -0.82050906307368
H       136.34266281678907   -2.49398596864061   -0.48326566884350
H       136.29681867093370    0.07828524314768   -0.02721800825201
H       136.29724438864380    2.65036388434065    0.43251325823453
H       134.37160005138603    4.50260623845050    0.78808897053395
H       131.76393419354130    4.44380028904343    0.80708766996388
C        40.56013262804811    0.05176927395191    0.00472852353513
C        41.78005276228510    0.06242973782772    0.00547181532408
C        43.11593178960988    0.07025564772381    0.00507043229855
C        44.34029596315938    0.07556996441477    0.00153832063089
C        45.67602384184578    0.07702248154454   -0.00028260627021
C        46.89617731491202    0.07749136578963   -0.00360556170518
C        56.57445505605764    0.04334108133981   -0.02311721717465
C        57.79473165912600    0.03969637727841   -0.02311211406277
C        59.13012727603962    0.03785968103606   -0.02125336195118
C        60.35474243667253    0.03456537056650   -0.02147718595234
C        61.69012842530822    0.03314217256338   -0.02033538370390
C        62.91041033139812    0.03273566549568   -0.02292996176717
C        72.58876191649722    0.04146951811556   -0.02215567497498
C        73.80907350439035    0.04054451056594   -0.02332216176431
C        75.14446247804845    0.04065762284940   -0.02271913085870
C        76.36907496191264    0.03971445779665   -0.02336225427745
C        77.70447003691253    0.04010334758348   -0.02244125447217
C        78.92477198153138    0.04049550213023   -0.02161769332434
C        88.60299642901498    0.03942175149366   -0.02350599147368
C        89.82329219643566    0.03829195995687   -0.02262641607913
C        91.15866863622610    0.03708923478674   -0.02207778712447
C        92.38327427052104    0.03808104410095   -0.02195021200706
C        93.71864185249898    0.03748547384295   -0.02088038681551
C        94.93894381701354    0.03694524615139   -0.02094706747973
C       104.61676888300177    0.05122367301765   -0.02457657366849
C       105.83705805399983    0.05051521704420   -0.02444374257251
C       107.17245168005044    0.04903389936176   -0.02280787312669
C       108.39704909050096    0.04718218777743   -0.02174391558113
C       109.73244153335871    0.04279405362499   -0.02328187742959
C       110.95270901484763    0.03710279168283   -0.02422647525154
C       120.63126882508163   -0.01721385323823   -0.01154893100766
C       121.85137606074055   -0.02006541557559   -0.00961154175286
C       123.18724499748285   -0.02108343748572   -0.00857991907373
C       124.41158696501338   -0.01962568391298   -0.00819978606703
C       125.74762069418696   -0.01453774287548   -0.00711386319418
C       126.96750488768357   -0.00681671429794   -0.00502060775229
Cu       51.73518326883808    0.05999482395531   -0.02052059336164
C        49.23576003674172   -3.36479375207627    0.36048666327806
C        48.27355854205716   -2.41687996521344    0.25997343065705
C        48.95041463134208   -1.15939941012108    0.12265362003851
C        48.29192117762860    0.07304945743725   -0.00759818298708
C        48.95873781739746    1.30033945082440   -0.14296646290724
C        48.29038788185876    2.56258066604152   -0.27805467477253
C        49.25895381098357    3.50307130895233   -0.38692272602777
C        50.51477155699501    2.81258311210344   -0.31805090818976
N        50.29862558336681    1.47707945183638   -0.16947474251172
C        51.74681769639646    3.43610654328399   -0.39628110674934
C        52.97467787350058    2.80265869031217   -0.33294179063040
C        54.23509029795369    3.48277446949085   -0.41855468126247
C        55.19728893176164    2.53526691098738   -0.31383764758644
C        54.52042107697368    1.27918276323816   -0.16460848645400
N        53.18181875465271    1.46619181048686   -0.18037577325692
C        55.17896913499982    0.04801174155681   -0.02260059274492
C        54.51205292315742   -1.17867869903320    0.11887452736444
C        55.18044500349556   -2.43996141750623    0.26216344960381
C        54.21188947772514   -3.38104783180956    0.36602751851125
C        52.95608495842400   -2.69173992104358    0.28637638033154
N        53.17219411498379   -1.35633555414461    0.13706376570114
C        51.72398714204921   -3.31646492394197    0.35355072424360
C        50.49619720714465   -2.68359702600367    0.28436847430903
N        50.28908139725078   -1.34625689364180    0.13945083796503
H        49.12134790600798   -4.42523917640042    0.47552815718162
H        47.20754891042657   -2.53617916694129    0.27540868431807
H        47.22518786258841    2.68972545356492   -0.28645806269804
H        49.15175812358606    4.56415937848670   -0.50300986171118
H        51.75044068024392    4.50999980494506   -0.51708622925884
H        54.34951124842495    4.54226061322981   -0.54209576483869
H        56.26328991035911    2.65403681460522   -0.33358686030992
H        56.24563631693248   -2.56626167196777    0.27864303881116
H        54.31913084379740   -4.44177189353290    0.48534322599694
H        51.72033576614380   -4.39069096241853    0.47132508846087
Cu       67.74952437462274    0.03696477882783   -0.02174343987936
C        65.26471420603521   -3.39713706892933    0.37201648869680
C        64.29839171807062   -2.45440653814014    0.26220348931821
C        64.96978252630377   -1.19479753001312    0.11846484928178
C        64.30587792326510    0.03358172423541   -0.02240266071070
C        64.96759494599947    1.26321141015002   -0.16326460839119
C        64.29380359241351    2.52147336870513   -0.30756313868968
C        65.25830797380532    3.46613434205419   -0.41669438645234
C        66.51704428019632    2.78209351065625   -0.33882446289606
N        66.30668090003313    1.44622882655485   -0.18476503459995
C        67.74636748683356    3.41134067126159   -0.41340071477840
C        68.97692449363710    2.78400479371381   -0.34261027761330
C        70.23432615178595    3.46998037653857   -0.42490495322838
C        71.20067214733123    2.52718150609385   -0.31582423070990
C        70.52931664210047    1.26816392615269   -0.16700662098971
N        69.18985366748841    1.44879922137323   -0.18663232111488
C        71.19328620880114    0.04028233242485   -0.02205885853779
C        70.53157335624218   -1.18883674277835    0.12334418533093
C        71.20529810045258   -2.44650429395389    0.27289254618506
C        70.24075479592855   -3.39107982573188    0.38258839950177
C        68.98205189083299   -2.70759766557964    0.29962420389498
N        69.19245611735556   -1.37205634702267    0.14298227452577
C        67.75271022267364   -3.33733743551846    0.37023280536602
C        66.52214734010006   -2.71059842259066    0.29490958465679
N        66.30923045997301   -1.37514716983777    0.14079967021505
H        65.15493584701814   -4.45733444287573    0.49368006454831
H        63.23289067064574   -2.57856624016993    0.27496798842606
H        63.22807975840779    2.64353616117053   -0.32109602187328
H        65.14648411133156    4.52609344916647   -0.53853180904147
H        67.74534130760857    4.48481304847494   -0.53786732954392
H        70.34405986114179    4.52985350884588   -0.54936572145613
H        72.26616242455100    2.65101009879807   -0.33204546792550
H        72.27100866827423   -2.56829550657946    0.28928270227879
H        70.35256008093377   -4.45064329127029    0.50783402943041
H        67.75381015260439   -4.41077041909581    0.49508003988654
Cu       83.76393890995958    0.03973330454281   -0.02208148407379
C        81.27586161944457   -3.38877560230221    0.39722108388163
C        80.31045244430139   -2.44522417607530    0.28632505860144
C        80.98301477909148   -1.18777970940892    0.12988470167690
C        80.32024630546672    0.04002260141798   -0.02130205711619
C        80.98325896652815    1.26771801759411   -0.17208398995944
C        80.31073640709781    2.52530245221808   -0.32749190614993
C        81.27619433725582    3.46874786046264   -0.43869784483809
C        82.53420675028518    2.78461113113272   -0.35095347495864
N        82.32254429102375    1.44970748308155   -0.19042828027648
C        83.76409046000522    3.41344730367655   -0.41928316774648
C        84.99395863396150    2.78591644294575   -0.33964061637997
C        86.25204176092504    3.47158108672618   -0.41333473535969
C        87.21740537265917    2.52798461790061   -0.30251108713467
C        86.54475259655382    1.26876363138096   -0.16153707883990
N        85.20549332500205    1.45022106169174   -0.18574400447767
C        87.20754696073588    0.03945391811300   -0.02343064995529
C        86.54464736165933   -1.18978365180362    0.11468737064432
C        87.21714898505537   -2.44927168443206    0.25392163125639
C        86.25168370214294   -3.39268807065964    0.36541814637927
C        84.99368209711170   -2.70665765636124    0.29384294547582
N        85.20535408730767   -1.37093428769856    0.14035175962040
C        83.76377657723954   -3.33393454512730    0.37504422462905
C        82.53391207776795   -2.70486567783636    0.30827562404887
N        82.32230720143362   -1.36998323033347    0.14760788312553
H        81.16505880728357   -4.44790255124091    0.52695235635337
H        79.24486027158348   -2.56761531044670    0.30583270434081
H        79.24514604465654    2.64786553145832   -0.34621282154917
H        81.16543698095767    4.52793728927638   -0.56795816037089
H        83.76408962260020    4.48668862764683   -0.54571181860612
H        86.36291514157818    4.53180808596474   -0.53369484700089
H        88.28301201686334    2.65140024766203   -0.31292686260524
H        88.28273054861954   -2.57298433003960    0.26272652712046
H        86.36247376247859   -4.45302893000231    0.48482374523588
H        83.76375159235582   -4.40720019105262    0.50129464898495
Cu       99.77790927064947    0.04440788279774   -0.02125935432521
C        97.29535149273880   -3.39008322344348    0.38455094159469
C        96.32844723588356   -2.44831260169348    0.27151820248827
C        96.99905651395747   -1.18878974407957    0.12362756399170
C        96.33439878083860    0.03876157287962   -0.02091011680619
C        96.99523318345966    1.26846474918179   -0.16528279590213
C        96.32051147051695    2.52588188210694   -0.31255295727085
C        97.28432176318420    3.47083110328800   -0.42534310173529
C        98.54355519441802    2.78782285888604   -0.34659392048282
N        98.33419167495828    1.45229029623056   -0.18838033506891
C        99.77242762575054    3.41768900211300   -0.42383745451648
C       101.00339370130460    2.79140768166069   -0.35124635333003
C       102.26040206618056    3.47788832663604   -0.43536702265835
C       103.22730093876385    2.53599208201711   -0.32345433887207
C       102.55667149873361    1.27699850584284   -0.17104434509057
N       101.21712493261809    1.45678545263283   -0.19126101812967
C       103.22130398862279    0.04982433172154   -0.02332080812464
C       102.56046250731235   -1.17937683075066    0.12512015335525
C       103.23520565985427   -2.43629249510233    0.27657057904877
C       102.27141637352277   -3.38113315038855    0.39033302639480
C       101.01216645801620   -2.69860528177130    0.30771047882485
N       101.22151478311818   -1.36333131682896    0.14717135571996
C        99.78331827469154   -3.32882545530404    0.38191444641763
C        98.55233940537873   -2.70301800918803    0.30521711183822
N        98.33861458943912   -1.36824371782104    0.14664673282648
H        97.18623500490628   -4.44993261167806    0.50975117808229
H        95.26303338619510   -2.57315120510307    0.28442833950410
H        95.25470485034222    2.64729074814879   -0.32532992684189
H        97.17169169058926    4.53035717036041   -0.55017787680665
H        99.77058495872437    4.49075360814725   -0.55174917140591
H       102.36950357293759    4.53746198397949   -0.56291549126653
H       104.29272424104674    2.66039514672627   -0.33978680967491
H       104.30101986197762   -2.55741657532246    0.29124827272229
H       102.38405931207134   -4.44031794715803    0.51802784640488
H        99.78512962728311   -4.40182082541172    0.51040868478589
Cu      115.79181976510834    0.00934233395483   -0.02055443864103
C       113.28370815014250   -3.40835269452745    0.36840691700828
C       112.32379929029257   -2.45901910425799    0.25940451007293
C       113.00371156441861   -1.20375471060700    0.11738796255255
C       112.34818892148256    0.02925396524234   -0.02261556142609
C       113.01811334517588    1.25447667030745   -0.16242749316657
C       112.35285547222333    2.51733078909353   -0.30652692223958
C       113.32375484602896    3.45540264826719   -0.41570026235798
C       114.57785084385891    2.76281806932969   -0.33753348852188
N       114.35840953987137    1.42845404300805   -0.18376147327667
C       115.81151412268561    3.38384308485533   -0.41008103659571
C       117.03776790361933    2.74855344705718   -0.33559523511033
C       118.29986865746541    3.42666934391866   -0.41217382826849
C       119.25977654749207    2.47775921335361   -0.29995562297358
C       118.57990255432594    1.22263481550575   -0.15599964686290
N       117.24165617243450    1.41191792313295   -0.18029174249981
C       119.23537552896016   -0.01019826018146   -0.01528510306909
C       118.56558166647331   -1.23555163642383    0.12242706963347
C       119.23079588011487   -2.49842067122887    0.26708333969257
C       118.25987530452963   -3.43664185992171    0.37444063559530
C       117.00574828353881   -2.74415681345047    0.29523072624961
N       117.22520311891981   -1.40971944096278    0.14232816839070
C       115.77212450522919   -3.36546898918338    0.36606333452367
C       114.54579812222399   -2.73018055008510    0.29245452294767
N       114.34189658983595   -1.39320488731239    0.13998304449239
H       113.16672652973449   -4.46792267485361    0.48880054281440
H       111.25749679947268   -2.57609277283482    0.27140230289423
H       111.28797629454679    2.64665714339220   -0.31973474252893
H       113.21913793832458    4.51611438520174   -0.53741417292336
H       115.81783243376678    4.45727708347963   -0.53478538638673
H       118.41679114243614    4.48594202696793   -0.53523062900948
H       120.32607586681137    2.59490655308836   -0.31161055147823
H       120.29569078559507   -2.62754290324645    0.28190898638395
H       118.36442178533407   -4.49737947205949    0.49601502476865
H       115.76585001509461   -4.43909168849673    0.48915021745694
