238
 energy: -407.117193628084 gnorm: 0.000804520572 xtb: 6.4.1 (bd6e46d)
C        41.96139066982081    3.42432308740816    0.16578180177222
C        42.91630200918250    2.47507154208726    0.11823906706700
C        42.21416976592965    1.20738422734957    0.02644407617546
C        42.87453903163748   -0.03611290776495   -0.03892363792748
C        42.22199845645070   -1.27762365761238   -0.11662909733846
C        42.82384607595935   -2.56288317987651   -0.17874870671802
C        41.81841485451553   -3.48383258092796   -0.24733671294550
C        40.58111431249483   -2.78060833102210   -0.22979688910850
N        40.87767873377670   -1.45374846901262   -0.14888960901161
C        39.31229392558071   -3.33788383525455   -0.28864496055888
C        38.09672296382191   -2.66785279277086   -0.27919302974786
C        36.81748417812447   -3.35916426862267   -0.35208243156107
C        35.87114637943456   -2.40277576708125   -0.32114698595231
C        36.57949244651056   -1.13544336153982   -0.22849478357856
N        37.91454196279792   -1.33313437998077   -0.20609791034442
C        35.93653272570896    0.09460792316140   -0.17048689098087
C        36.56418188277266    1.32734770281893   -0.07821065558633
C        35.96081588167053    2.61575891751600   -0.01058866911835
C        36.96248130832036    3.53714362735417    0.07272266005037
C        38.20341600844386    2.83612250591549    0.05718722132522
N        37.91061920718773    1.51220493208933   -0.03420138081316
C        39.47246255244384    3.39236347386359    0.12023825189695
C        40.68864958526966    2.72625184072154    0.10033325276165
N        40.88335337844641    1.38796379124607    0.01777635841314
H        42.07079981495827    4.48945644908043    0.23679574550520
H        43.98334083432362    2.58335582528096    0.14229223551899
H        43.88119462908303   -2.74298852264580   -0.17108657798278
H        41.91397742015022   -4.55058977070279   -0.30567393675283
H        40.20577059093898   -0.69571772276399   -0.11806406193683
H        39.26830814812923   -4.41643390807682   -0.35137679824464
H        36.70240055898456   -4.42425065756161   -0.41719337547421
H        34.80326889178899   -2.50423621142048   -0.35484714925785
H        34.85644790823179    0.09074364834745   -0.19800972967389
H        34.90374932536929    2.79770663965123   -0.02446827349374
H        36.86551432609768    4.60353350814909    0.13875495774009
H        38.58096474931364    0.75361783748385   -0.06654352211551
H        39.51784653946532    4.47048506689644    0.19071151056590
C       104.72152328108446   -3.39822325144883    0.41366827445776
C       103.76655770365301   -2.44974493373399    0.35384011188321
C       104.46737235352860   -1.18747846816464    0.19868913306993
C       103.80608538650219    0.05304587857570    0.09624209205384
C       104.45640408712397    1.28956952801270   -0.04988983608075
C       103.85273590014488    2.57121449141601   -0.15446764504655
C       104.85610742748625    3.48821303763735   -0.28160634321267
C       106.09387480703761    2.78604656570126   -0.25833389130207
N       105.79969947731033    1.46380178359867   -0.11622848964605
C       107.36127473066337    3.33988550546294   -0.36283173054564
C       108.57677234382624    2.66985801246474   -0.34725196341104
C       109.85473926980465    3.35657125806799   -0.46902422520068
C       110.80121870391854    2.40129427281031   -0.41610181494967
C       110.09421901973867    1.13920963182182   -0.26196625097268
N       108.75983169214949    1.33887183347772   -0.22443353243826
C       110.73783642715001   -0.08833663974962   -0.16880078379482
C       110.11207660448400   -1.31652529387768   -0.02026562142282
C       110.71701040150990   -2.60198408142743    0.08138855910364
C       109.71741093741340   -3.51949703874492    0.21626316950434
C       108.47627263207514   -2.81892793933673    0.20030204287259
N       108.76679136865030   -1.49921509534532    0.05612834198239
C       107.20885715432874   -3.37162880669673    0.31002229244081
C       105.99291985743054   -2.70506509116702    0.29343140262434
N       105.79742762887651   -1.37033924689041    0.16635313897469
H       104.61288279323905   -4.45988926405546    0.52581123713757
H       102.70026948176752   -2.55541078925714    0.40584992171820
H       102.79563557629005    2.75174820212238   -0.13354279656073
H       104.75881084799835    4.55158819631148   -0.38299503694942
H       106.47272732682619    0.70776858598317   -0.06697681219606
H       107.40400926983190    4.41495118708154   -0.47023845077090
H       109.96898972234702    4.41814644673962   -0.57810771916509
H       111.86839223738863    2.50041626160339   -0.47170278915800
H       111.81726802279395   -0.08631278889307   -0.21555208855951
H       111.77366673805396   -2.78468056098677    0.05360238161082
H       109.81593835704116   -4.58294989067789    0.31779188693037
H       108.09556016784863   -0.74216227040063    0.00969390636113
H       107.16471344215823   -4.44650860605269    0.41968873802704
C        44.27079150104449   -0.03960017832690   -0.02718160861996
C        45.48956101891645   -0.03163023778533   -0.02443206625772
C        46.83015346846167   -0.01770021330391   -0.01726154433829
C        48.04897507907113   -0.00026420172760   -0.01454316579549
C        57.86091024937058    0.00628171322276    0.06994569707399
C        59.08009598655927    0.01374297040705    0.07144856219362
C        60.41999178698853    0.02616061148991    0.06543881198586
C        61.63924740671619    0.03078835429543    0.05910438853448
C        71.45694669506700   -0.01685133134295    0.00001219969042
C        72.67613001937374    0.00502244677461   -0.00211715771905
C        74.01589832373905    0.02493349130875   -0.00593928863690
C        75.23496452735996    0.04410304832963   -0.01298396928687
C        85.04951276517195   -0.02089914950374   -0.05081631660441
C        86.26855583062270   -0.00336121943652   -0.03675340114685
C        87.60820119021108    0.01248762653028   -0.01641705441624
C        88.82696841530104    0.03489742432934    0.00830395789304
C        98.63305798552956    0.01180550763688    0.19803902941189
C        99.85176541318577    0.03361692630935    0.18649490984359
C       101.19207414722624    0.04417112071264    0.16389804758965
C       102.41050073671001    0.05772454193131    0.13644857004187
C        50.43331635449202   -3.41550086371979    0.32031930571418
C        49.45615028767580   -2.49301385236015    0.22145793631563
C        50.12817089356682   -1.21158547433220    0.11069410020469
C        49.44395375509885    0.01503026322118   -0.00769523074366
C        50.08593834232872    1.26040577237700   -0.11763612067643
C        49.48228355749087    2.53844157658702   -0.24537466814977
C        50.48839087821920    3.45890404111478   -0.32528264833214
C        51.72587375883204    2.76145952314823   -0.24738271294409
N        51.43037944305002    1.43824995630198   -0.12311061009443
C        52.99177281909739    3.33017507790809   -0.28985266992722
C        54.22096633318272    2.69545443323194   -0.21612503852657
C        55.47747177945438    3.42328515006403   -0.27333870412816
C        56.45456321528984    2.50060018075232   -0.17553969760425
C        55.78228023244129    1.21970245572569   -0.05945768074035
N        54.44767950077533    1.36551293983853   -0.08623008106954
C        56.46646653742295   -0.00665839014117    0.06469297619186
C        55.82412951380644   -1.25147905410997    0.18106382079979
C        56.42783425635623   -2.52909752195266    0.31266890323469
C        55.42186689274108   -3.44970786790231    0.39170880698075
C        54.18438943260795   -2.75272414390256    0.30939303286276
N        54.47990782168468   -1.42943115417037    0.18427626552794
C        52.91875123824926   -3.32168840108772    0.34707244539465
C        51.68960311027351   -2.68697711685622    0.26892059012226
N        51.46306149299912   -1.35712828967319    0.14081957225007
H        50.34910211412551   -4.48074735269605    0.41857771225209
H        48.39183864880049   -2.62765691434310    0.22017126906648
H        48.42479813681351    2.71542690098722   -0.27204018972470
H        50.39208993252648    4.52217919752474   -0.42872869177517
H        52.09110804245304    0.67311816097614   -0.04414740168548
H        53.01847160936266    4.40656522113756   -0.39341905544445
H        55.56185802816248    4.48829723049048   -0.37408960584401
H        57.51895059327735    2.63481409651753   -0.17754905043606
H        57.48530357528063   -2.70575966003793    0.34153695003752
H        55.51818296482054   -4.51279359385246    0.49697029650652
H        53.81889718033565   -0.66491809164149    0.10192702434513
H        52.89169802453715   -4.39809312832516    0.45016227760341
C        64.01156739130639   -3.39072593510896    0.43945602962173
C        63.03725430310168   -2.46524365837396    0.33989141574945
C        63.71339147491523   -1.19050799389063    0.18608437837126
C        63.03360770528092    0.03688262080144    0.04821690190715
C        63.68180930859493    1.27481221342077   -0.10404291515610
C        63.08531311629523    2.55396451210881   -0.25110913883544
C        64.09678494942901    3.46424632014499   -0.37072634251998
C        65.33021334088353    2.75904804660429   -0.29877559494500
N        65.02713482646469    1.44156060622208   -0.13749015748782
C        66.59873636227091    3.31762022145831   -0.37879620451608
C        67.82551194179392    2.67772387979443   -0.31121977436673
C        69.08423753635159    3.39728575692751   -0.40847500579478
C        70.05850369374694    2.47274945684779   -0.30064234596665
C        69.38228327037972    1.19892560950922   -0.13951369274641
N        68.04808205649320    1.35054728112497   -0.14985153486268
C        70.06262981271846   -0.02736274915263    0.00662692968184
C        69.41493304147176   -1.26573035749300    0.15674950811622
C        70.01119514287674   -2.54503018672942    0.30380305577390
C        68.99951609044783   -3.45611142923779    0.41543726248408
C        67.76601811222966   -2.75130072987276    0.33910372877114
N        68.06947558260921   -1.43324421802235    0.18307349466999
C        66.49736117134908   -3.31060581809164    0.41184817779489
C        65.27035371082543   -2.67064223382505    0.34572691047663
N        65.04770417826346   -1.34258448276788    0.19289740886203
H        63.92402526191110   -4.45300486306470    0.56359468129204
H        61.97243494868914   -2.59378524203936    0.36359893651653
H        62.02889383017968    2.73870930701282   -0.26236553499091
H        64.00672567047722    4.52558471878362   -0.49704942657879
H        65.68153958991219    0.67148940386438   -0.05202296033340
H        66.62997707538014    4.39091187176689   -0.50967816629161
H        69.17181813397629    4.45865113012098   -0.54003548727129
H        71.12327096809955    2.60152839602454   -0.32368029727804
H        71.06763445961633   -2.72945385790045    0.31998935005192
H        69.08940947001159   -4.51777450545566    0.53927061235049
H        67.41520788920249   -0.66327719754885    0.09569575513083
H        66.46607521942819   -4.38456564164579    0.53729625979228
C        77.59798840442569   -3.37806484808115    0.37250491760252
C        76.62654563303622   -2.44961371915871    0.27341138247895
C        77.30654337245856   -1.17719941809285    0.11672639745289
C        76.62928097359716    0.05155738480451   -0.02341040540995
C        77.27945833033199    1.28837320881403   -0.17531615320359
C        76.68548715348854    2.56887832014195   -0.32154699681143
C        77.69865760005061    3.47746619025575   -0.43986716945323
C        78.93079467509354    2.76998232785276   -0.36763104733671
N        78.62511633952174    1.45288382145275   -0.20761974478314
C        80.20067913395798    3.32561998056956   -0.44596942958128
C        81.42573858182510    2.68229712923504   -0.37737334275128
C        82.68659388978993    3.39874052637689   -0.47044089131228
C        83.65816116143340    2.47152518565836   -0.36118928547850
C        82.97823024703332    1.19915906265921   -0.20424039262659
N        81.64438006008960    1.35430372664324   -0.21797831930479
C        83.65518400793796   -0.02886631272889   -0.05775897131823
C        83.00485488644173   -1.26646774310500    0.08719697558863
C        83.59898419530414   -2.54702670749057    0.23187971477507
C        82.58578830997926   -3.45679936213213    0.34066182969710
C        81.35364684658526   -2.74971089628256    0.26560507114398
N        81.65916979930113   -1.43190308266712    0.11182457497814
C        80.08372529746900   -3.30599375558941    0.33948406344565
C        78.85882153564249   -2.66209361993616    0.27606584287894
N        78.64021984753718   -1.33326629344381    0.12258491079508
H        77.50723298915607   -4.43987212231341    0.49818243954437
H        75.56143421775623   -2.57497260275106    0.29910201006258
H        75.62940150539842    2.75567902083518   -0.33307262771797
H        77.61059407084743    4.53909862779126   -0.56526814722771
H        79.27913120962964    0.68257609876926   -0.12210125609696
H        80.23499152192204    4.39896679222441   -0.57560904730015
H        82.77731509950729    4.46008636439701   -0.60002951498667
H        84.72335148945321    2.59741266311356   -0.38110203522546
H        84.65512052658981   -2.73311687432310    0.24825588508626
H        82.67378914158091   -4.51889860052504    0.46203425956056
H        81.00547585224521   -0.66134543575873    0.02589988579250
H        80.04952211221394   -4.37992998123984    0.46413193167502
C        91.19044463635473   -3.37489820077693    0.49300115282944
C        90.21907788010571   -2.45190624760385    0.35144206523490
C        90.89858201456606   -1.17730664323917    0.21034941541074
C        90.22096257921558    0.04761404720046    0.04256426387328
C        90.86848455127283    1.28812193915617   -0.08889637292987
C        90.27030682439113    2.56450727529366   -0.25401536705888
C        91.27980358132675    3.48112610968981   -0.33492130659318
C        92.51398639932810    2.78272143659092   -0.22167542650785
N        92.21305370292200    1.46287217532249   -0.07498713257487
C        93.78202898719391    3.34647667743584   -0.25660229765200
C        95.00753879715880    2.70798433624396   -0.15599942171341
C        96.26774648683765    3.42883659262284   -0.21728626285131
C        97.23963522856562    2.50358943925279   -0.09530949262719
C        96.56044045580015    1.22845017574287    0.04147621533201
N        95.22653837778367    1.38005853992645    0.00238296317087
C        97.23815234568106    0.00193312882143    0.19413563622347
C        96.59044543218529   -1.23689996382749    0.33873295508816
C        97.18857161918226   -2.51287701515757    0.50700632422629
C        96.17863270894964   -3.42720841921422    0.60694424509903
C        94.94435541110548   -2.72808171263493    0.49995237358020
N        95.24540736916936   -1.40986890015259    0.34078446121248
C        93.67592850506330   -3.29092014168898    0.54453441260709
C        92.45070769953473   -2.65376470821252    0.43534662734753
N        92.23185267660750   -1.32715742432904    0.26381550163592
H        91.09981220768141   -4.43615834521154    0.62339735295453
H        89.15429685829002   -2.58212632555385    0.33978011680446
H        89.21384071084620    2.74312014339191   -0.30198333931995
H        91.18797775980566    4.54231430815216   -0.46129541288399
H        92.87147112636129    0.69920968486691    0.03170001090564
H        93.81462294252168    4.42047662293714   -0.38084969486320
H        96.35804196799211    4.49124154225386   -0.33822825697184
H        98.30458967333405    2.63277557164192   -0.09252207617665
H        98.24523976307762   -2.69266119485775    0.54524603119910
H        96.27026757043686   -4.48742991935107    0.74135579532527
H        94.58727688919650   -0.64575702907302    0.23540751606751
H        93.64341327686358   -4.36377524533667    0.67840868149932
