78
 energy: -140.873506793238 gnorm: 0.000582923208 xtb: 6.4.1 (bd6e46d)
Cu        6.65175140537408   -0.05389092685105    0.02432418650829
C         9.13093705658238   -3.51437828528345    0.04958766209961
C        10.09641841820378   -2.56548401402665    0.08683502133761
C         9.42483215837985   -1.29737092272342    0.08887898273437
C        10.08866874547216   -0.06206980534440    0.12717864575965
C         9.43075546765856    1.17713379603223    0.12067706056035
C        10.10729270589413    2.44215035682635    0.15431084526583
C         9.14603911377988    3.39566246765323    0.12709067873328
C         7.88555138380505    2.71110806009086    0.07768971700521
N         8.09258129173853    1.36617514167104    0.07625444835106
C         6.65848206501227    3.34867266179336    0.03642582721052
C         5.42963927610267    2.71422308599403   -0.00558060962542
C         4.16695573554971    3.40083335099949   -0.04418358439340
C         3.20667510134972    2.44863595771766   -0.06960068875273
C         3.88157009326019    1.17909340738665   -0.04754899389735
N         5.22395156831818    1.37296603853795   -0.01032727776356
C         3.23725131622864   -0.04570722605446   -0.06103177198695
C         3.87497960040630   -1.27391090439345   -0.04582174016253
C         3.19375835866404   -2.54012642326566   -0.06288236738370
C         4.14960858737575   -3.49702537062753   -0.04720321030617
C         5.41591760751103   -2.81659665119752   -0.01995968877457
N         5.21655760143503   -1.47441286370782   -0.01839131044902
C         6.64264809518685   -3.45624422906389   -0.00147540056807
C         7.87279802726837   -2.82396047514875    0.02950298369360
N         8.08546330026414   -1.48002219855636    0.05186621826796
H         9.24121958948221   -4.58143209483599    0.03662680425697
H        11.16176350204999   -2.69017912207582    0.11024661914402
H        11.17263128154129    2.56223485965843    0.19257699357607
H         9.26080500423649    4.46227135206563    0.13915838704433
H         6.66104265515558    4.42920584390902    0.03911093981207
H         4.05468234505522    4.46797719256930   -0.05013106720981
H         2.14104334804751    2.57050431262027   -0.10070652992022
H         2.15724411805367   -0.04275622707475   -0.08683133415243
H         2.12735251164565   -2.65708059577417   -0.08431602412229
H         4.03188305516594   -4.56357753934882   -0.05276712838656
H         6.64104864270090   -4.53675511716497   -0.01063231350315
C        11.48485175475932   -0.06503268183013    0.17068345461580
C        12.70422499374318   -0.05281869705876    0.20573484491679
C        14.04012588792127   -0.04525235889983    0.23629653490185
C        15.26420678240466   -0.03765576588993    0.25041649163064
C        16.60040185138838   -0.02428148736500    0.24625752522971
C        17.82008623069928   -0.01011990679414    0.22395930424986
Cu       22.64600806726282    0.05390675318693   -0.04804771131243
C        20.12239379234149    3.47579365199015    0.17478203768675
C        19.17164850930063    2.51209602601188    0.21224723772798
C        19.86003837247029    1.25460203710816    0.14970146374576
C        19.21597647461190    0.00841414060119    0.17579936868316
C        19.89337859794695   -1.21990465757513    0.15171228863692
C        19.23890937554233   -2.49521470797639    0.21763851100997
C        20.21459571357517   -3.43337063244131    0.17469539815586
C        21.46144666020760   -2.72937737688333    0.07595160664387
N        21.23256602146813   -1.38796876094091    0.06911651480880
C        22.69537715583061   -3.34809288037185   -0.01656542684334
C        23.90887871534612   -2.69508907780659   -0.14132620676468
C        25.17671341991033   -3.36169987941468   -0.26536317153991
C        26.11605350213030   -2.39457855627556   -0.37415096375915
C        25.42382744090489   -1.13580938199045   -0.31139705208873
N        24.09131301279353   -1.35088684114536   -0.17323808420306
C        26.04545813512034    0.09924284134019   -0.37206105597803
C        25.39252066383260    1.31699700753331   -0.29254365527218
C        26.05299775335791    2.59361026222437   -0.33388885918256
C        25.08856875033763    3.53512332542492   -0.21995467052102
C        23.83721875979870    2.83504716144652   -0.11374211734571
N        24.05429339484824    1.49636084450277   -0.15934934019073
C        22.60629538197099    3.45585820312047    0.00415238847098
C        21.38796900703446    2.80514450174772    0.08292863401516
N        21.19456307733154    1.45819519049947    0.07262649125314
H        19.99701746360983    4.54088789185662    0.20253282000724
H        18.10643689567586    2.62069052192701    0.27882100910150
H        18.17729766570013   -2.63178949771449    0.28969231734861
H        20.11769757372411   -4.50143008522762    0.20264237428947
H        22.71053531002486   -4.42842304394803   -0.00095664854749
H        25.30656707994538   -4.42684127181207   -0.26908147356502
H        27.17811465711913   -2.49979762525555   -0.48490586470648
H        27.12009561859885    0.11391537366482   -0.48161263288430
H        27.11284112492720    2.72730292077024   -0.43487726928226
H        25.19111075873107    4.60317730183671   -0.20913577448101
H        22.59365145648426    4.53611550529834    0.02600316253513
