114
 energy: -191.375605769656 gnorm: 0.000298878073 xtb: 6.4.1 (bd6e46d)
C         8.13357905992599   -0.00380471350577   -3.29951000281119
C         7.26238417352866   -0.13359794575521   -2.28011656906338
C         8.04910619081478   -0.02268120259643   -1.06488461827376
C         7.49116438349793   -0.10674568459173    0.22614091755228
C         8.22928496183570    0.02443111996953    1.41287099622827
C         7.74755636601345   -0.07420250946894    2.74539343329942
C         8.80838389997324    0.12188116210899    3.58170435026744
C         9.96254887811466    0.34133672879210    2.77791083981267
N         9.56224941963302    0.26957578601990    1.47844466055941
C        11.24990151370140    0.58373667229971    3.23436850800210
C        12.39291654652825    0.78828507754641    2.47410654975894
C        13.69773889794522    1.03818755422472    3.07002161744655
C        14.55839382915894    1.18000406774437    2.04513838583135
C        13.77318202507917    1.01454123492826    0.83182935774031
N        12.47672915989881    0.78273872981677    1.12775589014504
C        14.31559997358205    1.08764009878694   -0.44504452794077
C        13.60641884573715    0.93486482915963   -1.62646201738636
C        14.09715988201666    1.00128833488553   -2.96180035084207
C        13.04114973513598    0.79760207524729   -3.79991212539230
C        11.87825898694895    0.60143762671371   -2.99899764820041
N        12.27066418384062    0.69116581750027   -1.70109587486364
C        10.58808604419851    0.37433504018434   -3.45409176363946
C         9.44075908892636    0.19239478740467   -2.69620168164448
N         9.34818398960602    0.17699082119621   -1.34499402028452
H         7.94534522540289   -0.02694162210616   -4.35574289698994
H         6.19956402194622   -0.27350929621726   -2.31015398475841
H         6.73007416439560   -0.28035230445859    3.01398984154015
H         8.80332297189010    0.11467551812946    4.65432438753862
H        10.15440031617187    0.37800333182793    0.66295935965637
H        11.37445512243398    0.61489449845258    4.30808471295174
H        13.88662251058486    1.09074332370270    4.12524703154242
H        15.61357746035340    1.37470037926199    2.06782253800978
H        15.37586267840891    1.27935286913411   -0.52428058036396
H        15.12001654454152    1.18210587016713   -3.22967114736786
H        13.05178364525868    0.78303074826306   -4.87261286358517
H        11.67729979674601    0.59676778119718   -0.88540195147787
H        10.46111831158814    0.34368562890520   -4.52763212865413
C        -8.70730040778050   -0.24210788834055    3.48097735718126
C        -7.68199662559635   -0.37388762555834    2.61698205709412
C        -8.25216425324603   -0.21260182898599    1.29159548448012
C        -7.48843007756765   -0.28648257379694    0.11076062537601
C        -8.02116566870733   -0.18102022408888   -1.18387818068868
C        -7.31336774912873   -0.23784988523200   -2.41445969306564
C        -8.22363807201779   -0.08284193281068   -3.41971958496241
C        -9.50656383943504    0.07976764958939   -2.82499080480797
N        -9.33217047697387    0.01047342892094   -1.47623748187791
C       -10.70558316499999    0.28422767528247   -3.49177231183041
C       -11.95985088251973    0.47955716774325   -2.93047873411277
C       -13.15419848917290    0.70149125526023   -3.73305572716139
C       -14.16782204923992    0.86143535870440   -2.86232162349327
C       -13.58508455363093    0.73469163705594   -1.53536722641105
N       -12.25743258501153    0.50486761788427   -1.61493242614999
C       -14.32455610110282    0.84093212791228   -0.36417619768446
C       -13.81669611120743    0.72418936846361    0.92054545506451
C       -14.52302601919577    0.81159072241933    2.15428819294280
C       -13.62150581983619    0.62639952828869    3.16029232805360
C       -12.34108427899411    0.42275271261075    2.56792043530000
N       -12.51110660708155    0.49194697747173    1.22130312821719
C       -11.14596965160755    0.19304072764066    3.23289816137620
C        -9.89155602673699   -0.00213525629299    2.67396816409358
N        -9.57688681339909    0.00270214845182    1.35660141684129
H        -8.69907280062047   -0.29775796658894    4.55263817073280
H        -6.64773676240628   -0.57640316747188    2.81651993666898
H        -6.25279290157469   -0.36852324219798   -2.50451376780227
H        -8.03414694204278   -0.07477069058348   -4.47546037653742
H       -10.06016833666931    0.09881286412826   -0.77676608223412
H       -10.65227593895602    0.30283722259278   -4.57159359822830
H       -13.17261433200664    0.72557128035855   -4.80591501485733
H       -15.20676387966207    1.04636688380072   -3.05785087865694
H       -15.38426807381379    1.02732925887792   -0.46207840643524
H       -15.57683013544328    0.99064735561282    2.24450968901754
H       -13.81131753173294    0.62829961358666    4.21620563333619
H       -11.78651533570074    0.38806638320935    0.52120220553332
H       -11.19912570544898    0.16343693726791    4.31257620718082
C         6.11047625481342   -0.31725477004034    0.33168916965128
C         4.90923731298021   -0.48001318949393    0.39359577348984
C        -4.90016441171768   -0.58080946422047    0.33073337088232
C        -6.10313162808406   -0.45845479367254    0.22706928879273
C         2.48923873928546    0.84826140705849    3.54273431809493
C         3.47476324533807    0.50507340270267    2.69049810654886
C         2.82143791474410   -0.11393772108351    1.55241944982204
C         3.51764881435710   -0.62346885335355    0.43936885586441
C         2.88978016412321   -1.25826159739443   -0.64526222448225
C         3.50458626321545   -1.88289192500592   -1.76174366731105
C         2.50817744851675   -2.38081598875603   -2.55196854999770
C         1.26432657571703   -2.06622842762263   -1.93690092506029
N         1.54753449058604   -1.39504970400067   -0.78691910664865
C         0.00487503328566   -2.37297184676880   -2.43358655278878
C        -1.23161476275652   -2.05706358738331   -1.89374014357306
C        -2.47977571488834   -2.40827449823434   -2.54974530945335
C        -3.46636996315704   -1.92302561360317   -1.77072525651362
C        -2.80933319163158   -1.29063855152484   -0.64191965706581
N        -1.47299583693783   -1.38948299965411   -0.73995605596343
C        -3.50668626510772   -0.67929953012823    0.41833182291604
C        -2.87971845868331   -0.14991540695841    1.55775073547119
C        -3.49166226900180    0.45390751557763    2.68731026784884
C        -2.49482105800160    0.81894968600815    3.54625529275426
C        -1.25263246337239    0.45867611996197    2.95270182148665
N        -1.53798630771457   -0.12841560506497    1.75818149872439
C         0.00750651814518    0.70340766471691    3.48076921623482
C         1.24380543736079    0.45287531254522    2.90668840240037
N         1.48662430676945   -0.12965572173805    1.70831219628556
H         2.56070042618188    1.32885079757926    4.49956553737203
H         4.53368126023435    0.64608643010461    2.78496593327462
H         4.56311285306412   -1.95302423880942   -1.91865684984753
H         2.61504770744005   -2.91589823734925   -3.47547757651468
H         0.88215459247289   -1.03740605246410   -0.11019808544967
H        -0.01018226694134   -2.91320521141395   -3.37059292715921
H        -2.55307305421234   -2.94675007842189   -3.47510418274623
H        -4.52913849794703   -1.98782134023559   -1.90150614976445
H        -4.54764520328479    0.59301439350981    2.81089589953732
H        -2.59969316631084    1.30125401080341    4.49861585797153
H        -0.87356818882897   -0.49543734399815    1.08554851602866
H         0.02345029847923    1.18151957773787    4.45095473315364
