318
 energy: -545.311390300370 gnorm: 0.000670877977 xtb: 6.4.1 (bd6e46d)
C        57.69907191153668    3.43973192331968    0.05520911589781
C        58.65624889176797    2.49196395579452    0.02762708108658
C        57.95697645128077    1.22044438686848   -0.02405830873069
C        58.62023706798747   -0.02261917250958   -0.06179854774755
C        57.97022908493309   -1.26695947699411   -0.11154786907448
C        58.57440299957397   -2.55188358470666   -0.15370184971066
C        57.57042196960178   -3.47589003119916   -0.19825723752548
C        56.33174395346317   -2.77498819410938   -0.18408416771945
N        56.62605569363544   -1.44626413594973   -0.13113120583774
C        55.06395777129045   -3.33663740389141   -0.21857513768762
C        53.84644939423431   -2.67025567422957   -0.20520006765564
C        52.56858237722595   -3.36679816653924   -0.24456912247279
C        51.61957959536794   -2.41297186489862   -0.21605283915948
C        52.32500868503354   -1.14188112454884   -0.15992853469120
N        53.66089558058872   -1.33493880287969   -0.15509861189554
C        51.67915981470213    0.08731090699576   -0.11782489508202
C        52.30466163539881    1.32345691326023   -0.06514276412803
C        51.69886311488086    2.61174059839713   -0.02092539275113
C        52.69920111475045    3.53731048885506    0.02201338965847
C        53.94169870016056    2.83902639293559    0.00516538382610
N        53.65113257392746    1.51252355632275   -0.04726127044860
C        55.20991244629399    3.39994432492170    0.03573865941900
C        56.42779377402866    2.73681026660177    0.02001229245376
N        56.62563946529868    1.39727037920648   -0.02773144912242
H        57.80600263762776    4.50673776310089    0.09520438010434
H        59.72315326502578    2.60357252410063    0.03993993814340
H        59.63214789271328   -2.72974422928528   -0.15045505903767
H        57.66782622773162   -4.54335228302150   -0.23755210927525
H        55.95378632848675   -0.68818919146282   -0.10942903859120
H        55.02264462903188   -4.41631238688050   -0.26048274730443
H        52.45611748677392   -4.43329453032869   -0.28741163248319
H        50.55165497824957   -2.51842393903389   -0.23016344052890
H        50.59879335719765    0.07996325443544   -0.12717208358070
H        50.64119539194262    2.79068301088380   -0.02242129941718
H        52.60039016721623    4.60483790522737    0.06171182576750
H        54.32248248040793    0.75447855586579   -0.07089479896596
H        55.25295104064852    4.47970141613994    0.07651587927401
C       147.66544980067854   -3.41332898129096    0.40649396235226
C       146.70844072793221   -2.46751275901839    0.33736729306403
C       147.40716889610766   -1.20351859040724    0.18722712384907
C       146.74403168991444    0.03551946810519    0.07966208825479
C       147.39388980112386    1.27333034538305   -0.05810720493686
C       146.78979191309574    2.55464980762806   -0.16350413991416
C       147.79327447125985    3.47290972978332   -0.28010439922726
C       149.03151883411414    2.77181084066422   -0.24982822986637
N       148.73750648373718    1.44892423872637   -0.11357410370931
C       150.29874505236361    3.32771087518762   -0.34493955822040
C       151.51548180508351    2.66010401357050   -0.32442510789839
C       152.79249716982858    3.34984624904146   -0.43900960851908
C       153.74085751535239    2.39654367920951   -0.38386015273884
C       153.03596578223710    1.13267959732319   -0.23499181814807
N       151.70095255640652    1.32932545615317   -0.20326842793813
C       153.68153512003724   -0.09371549094327   -0.13991777896856
C       153.05666569518669   -1.32269951262425    0.00569460437842
C       153.66201992835585   -2.60762684065522    0.11106009304047
C       152.66232945943915   -3.52563174666973    0.24171832025081
C       151.42067150026989   -2.82598101159355    0.21893221393030
N       151.71107226499149   -1.50621812936972    0.07549108968052
C       150.15344218592665   -3.38055223270763    0.32154199084462
C       148.93601114242955   -2.71693432124261    0.29582586920176
N       148.73797308049720   -1.38289485672675    0.16603602589885
H       147.55878977707454   -4.47516696953563    0.51900062071652
H       145.64199332469653   -2.57578199065509    0.38052623961269
H       145.73242926015388    2.73423939891973   -0.14985196538741
H       147.69572688059591    4.53650508241762   -0.37885477646124
H       149.41003219503719    0.69260507797741   -0.06107715563447
H       150.34019690679358    4.40312521725802   -0.44945261034701
H       152.90485441702714    4.41187902487015   -0.54555776096844
H       154.80804706837986    2.49812141741465   -0.43459763427583
H       154.76114368075312   -0.08986118720042   -0.18185721663289
H       154.71892453951267   -2.78963167036544    0.08853575943919
H       152.76102854139231   -4.58895490787974    0.34446253148317
H       151.04084827031602   -0.74845582580161    0.02511813985139
H       150.11088308257601   -4.45543645114006    0.43201628837126
C        60.01642336477743   -0.02394139531308   -0.05017323818055
C        61.23517350268509   -0.01694669429903   -0.03747814006268
C        62.57574171945542   -0.00620399665426   -0.02892501727313
C        63.79460896157465    0.00897839494032   -0.02068484335850
C        73.61154093218926   -0.00948045683018    0.03467298468862
C        74.83061988567148    0.00836837660538    0.04027912516240
C        76.17044408198669    0.02432343345289    0.04652454937981
C        77.38962436461495    0.03820876096220    0.05169636796690
C        87.20351584280947   -0.02547645836915    0.02779705555702
C        88.42236895190300   -0.00874962834931    0.00164813693950
C        89.76187571658988    0.00737748716098   -0.02435909719067
C        90.98066930090006    0.02550770052050   -0.05238116472559
C       100.79219146617901    0.00840203916614   -0.08098125738774
C       102.01127352754077    0.02700232687451   -0.06943707879533
C       103.35093714751412    0.04244247313693   -0.05120571444920
C       104.56996383586242    0.05527334133833   -0.03323356452876
C       114.38115318282966   -0.04585641645645    0.11396859886042
C       115.60031498067796   -0.03275944474773    0.10255095277237
C       116.94006934937589   -0.01797376034282    0.08872615258178
C       118.15894236162444    0.00401140710595    0.06645390819802
C       127.97428777117828    0.00830791490993   -0.01497394033164
C       129.19335531384814    0.02842143361090   -0.01024083354088
C       130.53318620924529    0.04795706043819   -0.00426442798520
C       131.75235485015565    0.06654301579050    0.00263432099342
C       141.56987473763743    0.02117601154363    0.13457887046370
C       142.78885222117088    0.02918876665986    0.13241048078005
C       144.12939762839497    0.03474378877355    0.12249432768534
C       145.34811090278848    0.03938539144075    0.10662156590848
C        66.17323889928630   -3.41830696554015    0.24143120551809
C        65.19733846231645   -2.49223475745260    0.16608095514777
C        65.87128529408031   -1.21010863427268    0.07805271297742
C        65.18952340094560    0.02023942845736   -0.01310455005743
C        65.83511321745517    1.26575176839662   -0.09754784640193
C        65.23564441398018    2.54854944386815   -0.19289160614806
C        66.24491378821808    3.46683687692054   -0.25604463918876
C        67.48013547714770    2.76318015903581   -0.20062929145053
N        67.18018707327039    1.43863703714316   -0.10486913048248
C        68.74757819502184    3.32865995246138   -0.23928219388256
C        69.97560094092360    2.68949712045546   -0.18858249154374
C        71.23320493570671    3.41584677307536   -0.23947028046079
C        72.20901719220238    2.48957498367157   -0.16589094463475
C        71.53489676614198    1.20794598669066   -0.07124057829016
N        70.20040977544707    1.35677524061530   -0.08741411008234
C        72.21715446967099   -0.02195599011571    0.02671476124345
C        71.57179178636751   -1.26714544375500    0.11901867663375
C        72.17091416394111   -2.54955002720187    0.22108180655667
C        71.16132557111465   -3.46744921449734    0.28432142721681
C        69.92623928441314   -2.76394303958351    0.22222162840440
N        70.22675251648269   -1.43965644381303    0.12351926081015
C        68.65902172181951   -3.32982555741083    0.25534098286012
C        67.43072808778456   -2.69127477762280    0.19795894200884
N        67.20600727930177   -1.35868712561045    0.09854020483173
H        66.08734627425670   -4.48514745660488    0.31874340535505
H        64.13276823172362   -2.62483039365226    0.16777180903538
H        64.17871452859180    2.72995925496912   -0.21023782511115
H        66.15219970792349    4.53259890803954   -0.33401935777428
H        67.83726918215143    0.66842535827077   -0.04625259604922
H        68.77677733622851    4.40700479984896   -0.31921392663056
H        71.31922498782274    4.48243618121139   -0.32003735932746
H        73.27362499434221    2.62172712035804   -0.17216671551287
H        73.22776643209721   -2.73107074007392    0.24184571138157
H        71.25354414216739   -4.53296206800462    0.36627131864957
H        69.57100966216689   -0.66861984899937    0.06010808500379
H        68.62997057218388   -4.40812124729649    0.33604449476364
C        79.75242544035319   -3.38171101045005    0.47010910236873
C        78.78094957386145   -2.45510446327744    0.35487078000677
C        79.46101322070854   -1.18190562163361    0.20530834323497
C        78.78399786092058    0.04613016366032    0.05883116973543
C        79.43428556471321    1.28431077706437   -0.08126112602242
C        78.84005726693279    2.56448140325214   -0.22909285802349
C        79.85312267476108    3.47530774187255   -0.32960192715443
C        81.08537346704219    2.76927497668089   -0.24653010023373
N        80.77999881406298    1.45097479555943   -0.09681918015646
C        82.35521738685627    3.32702954462847   -0.31009326127802
C        83.58022961658850    2.68386104463353   -0.24157550009726
C        84.84116332759348    3.40057743785096   -0.33047309678463
C        85.81253264727751    2.47172042630703   -0.23417422693594
C        85.13233170112960    1.19842782607513   -0.08554897234108
N        83.79869134183143    1.35443175572287   -0.09306656444271
C        85.80936051623203   -0.03102108057217    0.04911732009749
C        85.15930568599467   -1.26756515830380    0.20347865782127
C        85.75360037719369   -2.54737471869144    0.35446171625330
C        84.74058457828653   -3.45614456895156    0.47247078128025
C        83.50828194711895   -2.74954470454790    0.39461567249086
N        83.81368338189183   -1.43252373379553    0.23360501747764
C        82.23845487895608   -3.30627635952090    0.46556479605402
C        81.01332329698778   -2.66417928060083    0.38761960486179
N        80.79480853899689   -1.33612091243990    0.22796779784736
H        79.66135254702695   -4.44333128958865    0.59718922829369
H        77.71576905708689   -2.58205361458516    0.36627408061746
H        77.78389558136628    2.74953071272153   -0.25335686221732
H        79.76500515767803    4.53742066524367   -0.45075832027633
H        81.43379669964661    0.68093814640045   -0.00720471297710
H        82.38923783136012    4.40134600614831   -0.43147298816302
H        84.93232694580902    4.46305281025865   -0.45009994377193
H        86.87768450035112    2.59746433212454   -0.25598973335984
H        86.80977457599595   -2.73338112022652    0.36975468994370
H        84.82884068476876   -4.51738757384949    0.60094756313967
H        83.15989626697214   -0.66237617026328    0.14498033052383
H        82.20435272548006   -4.37961227482711    0.59540312939652
C        93.35880504607395   -3.39031631291639    0.30416610174983
C        92.38318690164769   -2.46587362734213    0.20877367086120
C        93.05745776039853   -1.18950509369833    0.05969456886062
C        92.37480799794973    0.03681269743072   -0.07405719791133
C        93.01867987240657    1.27662762845403   -0.22883033076981
C        92.41734947541465    2.55324667319317   -0.37881889835053
C        93.42525451647052    3.46742858211141   -0.49901294037741
C        94.66134115918780    2.76739941130813   -0.42345504379755
N        94.36333209607444    1.44880539659179   -0.26146590476380
C        95.92825632694900    3.33040841548224   -0.49749320010758
C        97.15631609692238    2.69389867728695   -0.42149530722245
C        98.41393701603062    3.41690060457178   -0.50679969638402
C        99.38960574923549    2.49471778437944   -0.39186890410536
C        98.71529372984114    1.21875009985537   -0.23954631656722
N        97.38089923065168    1.36695242721630   -0.26079365743200
C        99.39793839613893   -0.00582684428287   -0.09096895171547
C        98.75401262991754   -1.24728534406493    0.04990136764628
C        99.35538367363067   -2.52422285437208    0.19727538262228
C        98.34748578580046   -3.44066139235090    0.29879684933082
C        97.11134020915590   -2.74146869566987    0.21664581510564
N        97.40934245705883   -1.42143832302251    0.06644064169146
C        95.84440245155693   -3.30545411475708    0.28155158558415
C        94.61637666147934   -2.66783904754942    0.21419798816163
N        94.39185781141292   -1.33946365964437    0.06594189635111
H        93.27267844491814   -4.45320401918997    0.42380017524617
H        91.31861652156077   -2.59621704568074    0.23155267364270
H        91.36022365986400    2.73379889875257   -0.39191983572450
H        93.33104685702945    4.52813684426426   -0.62763192388479
H        95.02171000167996    0.68259111319829   -0.17337706724310
H        95.95701385670681    4.40379316122204   -0.62809111205566
H        98.50001165045181    4.47876562171110   -0.63523569278533
H       100.45420181541307    2.62626307653061   -0.40512847654884
H       100.41256191007297   -2.70350965745176    0.22027118489056
H        98.44185673170766   -4.50222038144428    0.42005152047093
H        96.75058692709563   -0.65573978808718   -0.02318254711375
H        95.81549516328583   -4.37988557699845    0.40319691942477
C       106.91061744379836   -3.37164608825908    0.43625428205096
C       105.94532506581179   -2.44149452890164    0.29995458841700
C       106.63337261457586   -1.17173400537548    0.15734370430773
C       105.96403891415720    0.05837727840943   -0.00635163964941
C       106.62133098039169    1.29337850382364   -0.14133644959454
C       106.03450794140986    2.57502938853991   -0.30520961324733
C       107.05252559243746    3.48186842295036   -0.39099455915662
C       108.28046934774873    2.77193349368671   -0.28181822130488
N       107.96763935930581    1.45523764243864   -0.13290349677326
C       109.55342328239072    3.32462873495131   -0.32210349434011
C       110.77428347661929    2.67684406088969   -0.22694591473265
C       112.03950169594067    3.38849746040105   -0.29297018317959
C       113.00514982515537    2.45614314936778   -0.17554996874143
C       112.31726220422902    1.18591603581836   -0.03644455088811
N       110.98456791565445    1.34709544298478   -0.07006639047385
C       112.98677220529538   -0.04586517042742    0.11395206339524
C       112.32917980025151   -1.27931947776884    0.26092215778353
C       112.91595299219598   -2.56064694677494    0.42746917172792
C       111.89769191607979   -3.46534428442240    0.53107056799953
C       110.66964748843255   -2.75468694792881    0.42799166198760
N       110.98264852184587   -1.43941056518213    0.26739715614823
C       109.39653093451537   -3.30628725481792    0.47777727700843
C       108.17580935730962   -2.65958776964870    0.37414222612988
N       107.96581776835045   -1.33130899723663    0.20483569092977
H       106.81286607348211   -4.43239058909226    0.56561836276753
H       104.87959236944793   -2.56394642003578    0.29229507455624
H       104.97963848475874    2.76371549012380   -0.34961823449764
H       106.97028872252480    4.54372990422870   -0.51832675374652
H       108.61724191536416    0.68367858915137   -0.02763073518919
H       109.59416781793765    4.39838368892360   -0.44633731276531
H       112.13695198983523    4.45030692888879   -0.41352510426350
H       114.07100977013978    2.57760768404379   -0.17700988232066
H       113.97096598954671   -2.75047989891332    0.46249372558010
H       111.97987086142216   -4.52633020172703    0.66553137862130
H       110.33279668676423   -0.66783804709608    0.16381228954570
H       109.35567837200090   -4.37888291085063    0.61163018376425
C       120.54900582271000   -3.40688359865683    0.41245205832645
C       119.57000141715577   -2.48539059455090    0.32288565120676
C       120.23959426615940   -1.20660811110073    0.17357847861969
C       119.55308636733271    0.01814705177143    0.04527277835338
C       120.19387269394679    1.26002802802994   -0.10595205384386
C       119.58961485553728    2.53623118529961   -0.24765287504636
C       120.59538905503466    3.45279575526267   -0.36715991845611
C       121.83314020170215    2.75465465670053   -0.30006376242349
N       121.53807049188646    1.43482623346330   -0.14252404184024
C       123.09840103773963    3.32061625504691   -0.37902681271341
C       124.32875826307544    2.68698436632434   -0.31508456644985
C       125.58369506836247    3.41384246517797   -0.40673893482089
C       126.56281243015032    2.49383342370930   -0.30392257581295
C       125.89327164466414    1.21535822189997   -0.15224698106435
N       124.55822485156669    1.36000689243966   -0.16235643355216
C       126.57994264089355   -0.00819019507022   -0.01424355934997
C       125.93904758821745   -1.25119211418973    0.12745605392160
C       126.54319366207402   -2.52763325030214    0.26714316045435
C       125.53724301282010   -3.44557867608718    0.37418854054855
C       124.29954373287683   -2.74785160386109    0.30290231500243
N       124.59469457319642   -1.42715225043176    0.15343542000747
C       123.03418057429685   -3.31457534276557    0.37599082162879
C       121.80394867869985   -2.68035281388604    0.31785241272176
N       121.57447949307534   -1.35236766024843    0.17372870041080
H       120.46680239526594   -4.47026527070181    0.53050591164872
H       118.50594904685926   -2.61925639317039    0.34999025344323
H       118.53208660768699    2.71480228883187   -0.25600093440402
H       120.49873902334511    4.51394299395607   -0.49024796170516
H       122.19788727433397    0.66901714306310   -0.06136009780532
H       123.12372729541410    4.39469095655187   -0.50472324997348
H       125.66590472039726    4.47651787823227   -0.53105274261919
H       127.62691785144600    2.62842480836988   -0.32480510748503
H       127.60076070120773   -2.70547420551596    0.28186409152525
H       125.63376451023333   -4.50731726161887    0.49214137178394
H       123.93490380416135   -0.66143649418477    0.07112062473615
H       123.00886113452889   -4.38933390233691    0.49563515887377
C       134.11788744265542   -3.35087364880433    0.43768088939735
C       133.14556321670895   -2.42652459306431    0.31213747629721
C       133.82418414123202   -1.15125793022534    0.17433372007938
C       133.14668191410581    0.07562740437036    0.02067801914777
C       133.79713724024631    1.31441009811270   -0.11268503298689
C       133.20357473146603    2.59381378008180   -0.26993990316775
C       134.21699989803841    3.50557794653130   -0.35649325309948
C       135.44892131601907    2.80117442052295   -0.25423157012357
N       135.14276468437035    1.48249606927301   -0.10907377197507
C       136.71828851773498    3.36171642107760   -0.29549675888042
C       137.94399388556948    2.72225985145614   -0.20347666113111
C       139.20414152010892    3.44323136730903   -0.26676555747453
C       140.17649991114874    2.51761062623943   -0.15098428283604
C       139.49774652426890    1.24202494401265   -0.01678926659230
N       138.16369897902882    1.39385477171444   -0.05098617992424
C       140.17498825538817    0.01444042173040    0.12933116272023
C       139.52451965077574   -1.22376564245038    0.26705667256729
C       140.11834165327062   -2.50297342838939    0.42492603761652
C       139.10509720458634   -3.41402448678338    0.52099244577775
C       137.87303848777535   -2.70950215011805    0.42257976111101
N       138.17877997888448   -1.39149473448494    0.27123112861213
C       136.60326196151004   -3.26904320071665    0.47017191883737
C       135.37796657384533   -2.62976591918085    0.37453729348913
N       135.15798549206824   -1.30200111533061    0.21472383665798
H       134.02811261128227   -4.41309133295376    0.56070775462469
H       132.08066172476242   -2.55629592030813    0.30869304364334
H       132.14766953580875    2.77769009462692   -0.30971335137504
H       134.12941374950611    4.56749789289736   -0.47977482085446
H       135.79439253901106    0.71182051006072   -0.00874476141353
H       136.75161359965011    4.43613699168955   -0.41630708086256
H       139.29407508496942    4.50607988742911   -0.38410336291363
H       141.24151373935925    2.64662445289487   -0.15130165063345
H       141.17439352020577   -2.68704050216637    0.45919541038662
H       139.19316189479110   -4.47549263602860    0.64772239923242
H       137.52528496850377   -0.62228879926985    0.17251184107924
H       136.56947135850072   -4.34278882362609    0.59668878055970
