119
 energy: -219.981074124755 gnorm: 0.000568687902 xtb: 6.4.1 (bd6e46d)
Ni       11.93767109340188   -0.00437047862581   -0.01181319410090
C        14.43426066659734   -3.41617404346989    0.09487042344280
C        15.38617928039780   -2.45584392476585    0.09950034025463
C        14.69780439103273   -1.20144121510766    0.04391881846931
C        15.36453076241521    0.02700704595722    0.00138075248501
C        14.67585958661312    1.24310052553216   -0.04330669212486
C        15.34165987457323    2.51001523576741   -0.08899522850464
C        14.37242715156039    3.45289102909682   -0.08563123616722
C        13.12263539773206    2.75491132075436   -0.03949146764665
N        13.32354197950800    1.40026533858275   -0.02286855813171
C        11.90269165720517    3.39760902704095    0.00392166338420
C        10.69601088935956    2.72992589514106    0.03852303773507
C         9.42860222984344    3.40076362366801    0.08417239082192
C         8.48206349399700    2.43752195136287    0.07172663538604
C         9.17532800119181    1.18216099073629    0.01936158891717
N        10.52718056287524    1.37474000931020    0.00868050173263
C         8.52828304674055   -0.03554522932166   -0.03459166538557
C         9.19805491042831   -1.24134170015333   -0.07741203641743
C         8.52856665820390   -2.50931017796453   -0.13512721293493
C         9.49253405601195   -3.45518525490450   -0.12941938495626
C        10.74673967623743   -2.76115692391001   -0.06864765614152
N        10.55288844784631   -1.40918747436211   -0.04671418795064
C        11.96490496696895   -3.40644159458430   -0.01617960961595
C        13.17238132765342   -2.74130268258118    0.03625777372584
N        13.34875659767685   -1.38328965990432    0.01487450619777
H        14.55261821288085   -4.48178699754455    0.12608667321203
H        16.45305136020018   -2.56122259903804    0.13511745669175
H        16.40668589742037    2.63483108830780   -0.11690965014654
H        14.47156350897819    4.52064847544982   -0.11064104835075
H        11.89311320000707    4.47683299406645    0.00933148151766
H         9.30778582814206    4.46623489314497    0.11861993131609
H         7.41431113111448    2.53947857585471    0.09395080315723
H         7.44921863903029   -0.04534429604011   -0.04250224594088
H         7.46328280963559   -2.63082931626907   -0.17239149379055
H         9.39162977156975   -4.52280846211904   -0.16113952758523
H        11.97515795141631   -4.48567190380263   -0.01647245571697
Ni       43.91327793964703    0.02578655618526   -0.00814580497845
C        41.42589932165903    3.37480147717776    0.68828024426224
C        40.47110191455121    2.43255029407174    0.51832631300444
C        41.15610794202520    1.20430792002337    0.24873062689982
C        40.48608357163710    0.00308728222118   -0.00304339713797
C        41.17129161912491   -1.19002579234812   -0.25186844174712
C        40.50161755565394   -2.42884390334681   -0.51139077837175
C        41.46811961566898   -3.36009680343396   -0.67572704970153
C        42.72010904767428   -2.68303691024469   -0.51634459127895
N        42.52322859771933   -1.35145233673751   -0.26380120860605
C        43.93841819931768   -3.32528168791867   -0.59641708183562
C        45.14729843281578   -2.67628540310125   -0.45353450339831
C        46.41293374118523   -3.34662441702116   -0.53865827899193
C        47.36225502707570   -2.39886153982446   -0.38238611349816
C        46.67243641332045   -1.15361668471006   -0.20124528999125
N        45.31998145971167   -1.33828360931099   -0.23941050067164
C        47.32293741163134    0.05153896206280   -0.03157265072144
C        46.65670925642534    1.24617633374598    0.15092819304371
C        47.33012920927708    2.50077070028634    0.32922294841316
C        46.36899054518216    3.43260904650305    0.50754497250395
C        45.11255111511104    2.74362613653058    0.43624708108051
N        45.30232209996120    1.40985420909934    0.21061190355276
C        43.89599449521504    3.37375749179927    0.59727692592778
C        42.68614924959724    2.71528046778528    0.52079146325287
N        42.50588515554308    1.38300355856960    0.25952228934639
H        41.31053889807530    4.41898273230306    0.90495208843583
H        39.40431630475040    2.53451147753076    0.56511411074228
H        39.43613845412222   -2.54471183794111   -0.55552155103397
H        41.36578698139293   -4.40718901273830   -0.88455309289716
H        43.94480112113013   -4.38840382482638   -0.78235504562882
H        46.53073729845811   -4.40090599180531   -0.69871595717961
H        48.42980776528089   -2.50514922799076   -0.38579439012903
H        48.40200904080749    0.05986699960158   -0.04012546365606
H        48.39586177034490    2.62345338878121    0.31688666054392
H        46.47314396576951    4.48744875726789    0.67333371632568
H        43.88895647269997    4.43543884234061    0.79125277432810
C        16.76101075113115    0.03897554140392    0.00462047506596
C        17.98046288285281    0.04578209408811    0.00587284611202
C        19.31686515382757    0.05009110897222    0.00844038107962
C        20.54081281925374    0.05481956767509    0.00950530893125
C        21.87707888104505    0.05246215797154    0.00939959193284
C        23.09671300564460    0.05118125895458    0.00581530605028
C        32.75367078309922   -0.00780422458452   -0.00724079945025
C        33.97324388168845   -0.01109805598027   -0.00746446870470
C        35.30959475107214   -0.01195422819675   -0.00386098810613
C        36.53351887820598   -0.01011770172269   -0.00742004952319
C        37.87001942831289   -0.00919465971791   -0.00352421920843
C        39.08945301269669   -0.00586382420171   -0.00334037759279
Ni       27.92513144577178    0.02073388673709   -0.01014253165246
C        25.43512301376830   -3.37103110257068    0.43513408547393
C        24.47968025620693   -2.41914551164417    0.33590809221069
C        25.16416295672823   -1.17367862021048    0.16200634341729
C        24.49255701513681    0.04269020714100    0.00196893231122
C        25.17857479767094    1.25006480337690   -0.16417340810194
C        24.50874764964355    2.50384094095239   -0.33546264342103
C        25.47550219905157    3.44287602740141   -0.44667643426473
C        26.72686545173629    2.75509366800230   -0.34197813765443
N        26.53009102411245    1.41002034009900   -0.17444641858526
C        27.94544455459794    3.39896519978501   -0.39062737641719
C        29.15618124951846    2.74638136903552   -0.28962664612327
C        30.41559957452659    3.42604318679728   -0.33245777022836
C        31.37099631728756    2.47522480753372   -0.22323484758454
C        30.68629649747300    1.22239629270944   -0.11562258990107
N        29.33682148364137    1.39576371180734   -0.15111383461696
C        31.35771565071087    0.00007547996828   -0.01007889593467
C        30.67155831554800   -1.21433388842843    0.09158280150631
C        31.34117747124562   -2.47579292937953    0.19332425554954
C        30.37440364349635   -3.41574382796461    0.29641187918599
C        29.12324868015498   -2.72077897751419    0.25679817844574
N        29.32007704460439   -1.37177661708763    0.12470823131877
C        27.90488364567272   -3.35874946113787    0.35914289830601
C        26.69432731830748   -2.69918209533071    0.32156634598541
N        26.51356083405667   -1.35107613680665    0.16035723520484
H        25.32067055541666   -4.42878420406172    0.57133642455257
H        23.41292029897350   -2.52497808119974    0.37261211119697
H        23.44313446074437    2.62332603162682   -0.36255820069985
H        25.37359811246547    4.50162347378502   -0.58501106644126
H        27.95192573304679    4.47136422729046   -0.51261103048203
H        30.53016007873540    4.48774330913437   -0.43342630751883
H        32.43786835261442    2.58593728495533   -0.21535569728598
H        32.40667792557311   -2.59910815145755    0.18601516007863
H        30.47620472868063   -4.47918738486879    0.39213751319967
H        27.89845075632708   -4.43172067162956    0.47597009553854
