193
 energy: -352.815886013413 gnorm: 0.000417990874 xtb: 6.4.1 (bd6e46d)
Cu       28.91585559110217    0.00449321935422   -0.01163445234892
C        31.43811027162765   -3.42359457307095    0.03396772055459
C        32.39258717970748   -2.46291010845752    0.02924342194891
C        31.70635677717303   -1.20305678180925    0.01257887085779
C        32.35601347557484    0.04021633109251    0.00032349948495
C        31.68096744490480    1.26978862051807   -0.01306676887195
C        32.34102818606415    2.54362652756834   -0.02115786169911
C        31.36684328503794    3.48435475402471   -0.02755524623745
C        30.11470844243571    2.78323272623564   -0.02431597667988
N        30.33926817687643    1.44099282507692   -0.01577656675725
C        28.87912525476947    3.40544390811476   -0.02926097173783
C        27.65773549939609    2.75584591788962   -0.03042558588763
C        26.38607260203706    3.42649906081928   -0.03874539552079
C        25.43741767301925    2.46240132988122   -0.04161712784720
C        26.12835418503378    1.20152088645378   -0.03428622221777
N        27.46885746222382    1.41192752287590   -0.02713709716863
C        25.49920297424319   -0.03104384071237   -0.03509134540739
C        26.15368284683147   -1.25031026332347   -0.02493654635154
C        25.48903556137301   -2.52527212180946   -0.02395300377300
C        26.45744688988243   -3.46942762216696   -0.00895884274874
C        27.71488900413025   -2.77247296427135   -0.00133214878198
N        27.49822291426848   -1.43279567263868   -0.01182606851841
C        28.94945739374955   -3.39646375635457    0.01498049182411
C        30.17179124761748   -2.74864891800125    0.01943543124669
N        30.36853418692989   -1.40206763796547    0.00774970361561
H        31.56078017864553   -4.48929834871984    0.04546067276301
H        33.45950596778105   -2.57421962332352    0.03597930119155
H        33.40545964485800    2.67698516806675   -0.02093849019589
H        31.46741924648782    4.55243597217182   -0.03414507178758
H        28.86834192128499    4.48590289614010   -0.03386674922418
H        26.26024849264921    4.49210518919733   -0.04224944311086
H        24.36991755510639    2.57085243922397   -0.04783993478608
H        24.41902998398799   -0.04223015902025   -0.04331572411761
H        24.42404499580122   -2.65591510671752   -0.03339278131575
H        26.35375111455917   -4.53741390679459   -0.00360598874396
H        28.96115189677168   -4.47688396710101    0.02392257909732
Cu       82.78088047118565    0.03802578512351   -0.00928225674481
C        80.26593984058458    3.41422893401195    0.61710707210183
C        79.30939090157563    2.47118197541454    0.44498210420610
C        79.99297759643613    1.23083378683917    0.21508760975759
C        79.34071073367446    0.00818498329485   -0.00259975316112
C        80.01287533667781   -1.20343652062864   -0.22039230216178
C        79.35006259368214   -2.45608713970465   -0.44404252912749
C        80.32220121761861   -3.38297123353161   -0.61670702297506
C        81.57587725899928   -2.69455926405874   -0.49881176670506
N        81.35423453499605   -1.37367532304911   -0.25776818947812
C        82.81010704243120   -3.30794508583201   -0.61866213758259
C        84.03290040603444   -2.66993295768189   -0.51140470211481
C        85.30308661370249   -3.33079790639134   -0.64139154354651
C        86.25384427477711   -2.38320246146507   -0.47537565023393
C        85.56569315821426   -1.14223905815323   -0.24354406883951
N        84.22474161029656   -1.34803480826769   -0.27144598968006
C        86.19755467534296    0.06947613568258   -0.02547745286584
C        85.54576676201059    1.26928134690889    0.19971974808735
C        86.21321852769037    2.52227440391592    0.42734393944247
C        85.24685624208668    3.45180767113503    0.60501560751802
C        83.98785323339729    2.76798380944576    0.48557863552381
N        84.20160088896283    1.45029405727758    0.24106091519564
C        82.75462005476801    3.38335900510049    0.60462408754170
C        81.53086853028962    2.74824980498155    0.49112647454784
N        81.33129080260598    1.42428910037229    0.24751874288642
H        80.14552820337990    4.46240977312045    0.81132065437030
H        78.24270062247743    2.58235175091348    0.46905355472755
H        78.28536116147592   -2.58586057892039   -0.46305871024469
H        80.21933181764412   -4.43377881431547   -0.80687886201333
H        82.81853370231377   -4.37094745453979   -0.81227052816368
H        85.42661117961059   -4.37915946352570   -0.83377875222811
H        87.32107511688343   -2.49081606757334   -0.50287570914126
H        87.27775735382852    0.07938060825848   -0.03081888774251
H        87.27852124152581    2.64950460578011    0.44462078855199
H        85.35287913844186    4.50188978249196    0.79855477482067
H        82.74522419943428    4.44581566932869    0.80113667762135
C        33.75374591977179    0.05368198748192    0.00159930159972
C        34.97212021517132    0.06326732614511    0.00123117798553
C        36.31408583161449    0.06936998921397    0.00065104447881
C        37.53259080637790    0.07119918767190   -0.00207060347908
C        47.22346224990984    0.04720893155353   -0.01832618681583
C        48.44226188436500    0.04695000759096   -0.01888800016408
C        49.78385151560416    0.04564140917488   -0.02021811597032
C        51.00266034608605    0.04650255177793   -0.02067584264353
C        60.69371047503606    0.03951567129349   -0.02162521506854
C        61.91251421314780    0.03590207293818   -0.01945514867020
C        63.25409981691380    0.03330066322245   -0.01643682912314
C        64.47290367178709    0.03218055941400   -0.01978161430241
C        74.16375566318773   -0.00557149001565   -0.01004183778113
C        75.38222458421544   -0.00704825749713   -0.00663701250441
C        76.72439892529930   -0.00684344205870   -0.00401843004912
C        77.94268563304962   -0.00189734061931   -0.00239437431434
Cu       42.37798545928137    0.05912733936823   -0.01377534661984
C        39.88156573614160   -3.36705381157693    0.36435624134357
C        38.91719202999962   -2.42147416572333    0.26266572401450
C        39.59086508727189   -1.16232556566715    0.12525399502806
C        38.92968997144133    0.06862539136330   -0.00505771240002
C        39.59670873216331    1.29581990119935   -0.13958803570459
C        38.92923820476555    2.55838608442672   -0.27569529245874
C        39.89825620514276    3.49837730222459   -0.38493439829026
C        41.15389663175222    2.80741728776741   -0.31495656966905
N        40.93691796554679    1.47228158037710   -0.16546648343406
C        42.38611283364035    3.43106289408124   -0.39154428538229
C        43.61526213295795    2.80007427000133   -0.32569967739419
C        44.87417542581939    3.48361901820096   -0.40733161637175
C        45.83865536352464    2.53848870499861   -0.30202944549890
C        45.16516189419988    1.28022186156764   -0.15674766964751
N        43.82584099600136    1.46405884893647   -0.17441813767149
C        45.82664897306881    0.05020708491592   -0.01772254858234
C        45.15928552789439   -1.17659649421036    0.12124052340525
C        45.82661789159548   -2.43862408940121    0.26227708074231
C        44.85750968472956   -3.37910678598409    0.36688680982468
C        43.60196405155253   -2.68887944283331    0.28977407432914
N        43.81907179851599   -1.35361877409272    0.14119223831812
C        42.36969679944053   -3.31347224581759    0.35824621804305
C        41.14059481100375   -2.68289882814686    0.28893126321136
N        40.93017371313829   -1.34623817114829    0.14347223825000
H        39.76963229551739   -4.42775315527080    0.47976618303279
H        37.85142460963798   -2.54267037836704    0.27723181861167
H        37.86407499635276    2.68540855192236   -0.28444893834546
H        39.79160573452204    4.55942964334846   -0.50200256123444
H        42.38880406409734    4.50498771151620   -0.51269538493842
H        44.98597993157399    4.54365680447784   -0.52866643722159
H        46.90438375502650    2.65958339897129   -0.31870460307012
H        46.89175293689604   -2.56519604081871    0.27656630523164
H        44.96407199422017   -4.44003089184401    0.48517552647537
H        42.36700780938126   -4.38772000033099    0.47650462447132
Cu       55.84819676061461    0.04327251464496   -0.01900133748739
C        53.35782728656822   -3.38506446169614    0.37831052102492
C        52.39171165089380   -2.44244232529509    0.26546275702069
C        53.06304157415784   -1.18293772382396    0.12113988473438
C        52.39945648229482    0.04561576327322   -0.02051109032804
C        53.06481132358218    1.27327114467006   -0.16153966941139
C        52.39529471786410    2.53375640440566   -0.30578486987427
C        53.36277540399034    3.47525920510868   -0.41623328211962
C        54.61950531498877    2.78718842111282   -0.33945950889300
N        54.40470937704792    1.45226064191358   -0.18416255445020
C        55.85064605647016    3.41280761661414   -0.41733733518207
C        57.08086182019905    2.78433265552977   -0.34849231863176
C        58.33858580861361    3.46927757988378   -0.43611694578871
C        59.30467359948155    2.52627377567714   -0.32622813391679
C        58.63330856514015    1.26801009902528   -0.17153781119254
N        57.29368703082935    1.44959345168556   -0.18896538474529
C        59.29691610189779    0.04043834637214   -0.02200543249885
C        58.63162177523586   -1.18615679906384    0.12836331041149
C        59.30110744837204   -2.44537181030579    0.28336093722258
C        58.33360632688336   -3.38651204868163    0.39665469215130
C        57.07689742033558   -2.69955514319769    0.31036847638386
N        57.29172275088632   -1.36541115110667    0.14856341743730
C        55.84575408936186   -3.32595252482309    0.38152035179072
C        54.61553344359613   -2.69872119543991    0.30230201233967
N        54.40266811831466   -1.36365068210662    0.14559927160958
H        53.24782197412411   -4.44513419119127    0.50125669346625
H        51.32616009109196   -2.56598961999560    0.27641479602775
H        51.32990386981133    2.65863555957057   -0.31832270135710
H        53.25432721583211    4.53556978274826   -0.53843673555907
H        55.85143268858475    4.48616870231542   -0.54347293255430
H        58.44863075228142    4.52870700415789   -0.56444151964018
H        60.37023362394432    2.64876103910083   -0.34557253390622
H        60.36647749481016   -2.56980152313420    0.30032705643740
H        58.44204184332958   -4.44593055789064    0.52636154982097
H        55.84496961249380   -4.39904756763581    0.50989696728535
Cu       69.31825876422083    0.01299876846769   -0.01805913152221
C        66.81660977188096   -3.40772945011348    0.37393544314540
C        65.85365097622650   -2.46111524341267    0.26804999198434
C        66.52916448702881   -1.20394968849595    0.12249018663436
C        65.86972119559871    0.02686717367360   -0.01906068331671
C        66.53906442139980    1.25219861268817   -0.16113930350363
C        65.87372374575713    2.51458447574402   -0.30831910111883
C        66.84430590226603    3.45328380797929   -0.41514149447471
C        68.09877549388837    2.76170521249648   -0.33248408514686
N        67.87955561732666    1.42731876484224   -0.17925636849484
C        69.33201374203044    3.38451449880096   -0.39941119043631
C        70.56010960698698    2.75280406616440   -0.32255606652983
C        71.82025237233827    3.43534794017262   -0.39457407245962
C        72.78313957444288    2.48918637487194   -0.28463250244667
C        72.10745889334896    1.23118172044872   -0.14631116561551
N        70.76837258078550    1.41649119205286   -0.17139726030438
C        72.76641403259612   -0.00045382456837   -0.01300576688560
C        72.09747213770532   -1.22698562011712    0.11699532020035
C        72.76301934879413   -2.49034693496099    0.25562404141762
C        71.79254617886947   -3.42922772855737    0.36108482981295
C        70.53793704999097   -2.73684820896898    0.28640660602278
N        70.75694557738079   -1.40199787277429    0.13767220389977
C        69.30475297394113   -3.35895287036310    0.35998928583810
C        68.07662246461926   -2.72616326838635    0.29266328070357
N        67.86819626894915   -1.38986692003520    0.14090864601476
H        66.70312398359216   -4.46758362596696    0.49546717630941
H        64.78771458530734   -2.58053800766505    0.28444399438987
H        64.80877839426410    2.64250145127087   -0.32507294614059
H        66.73939813991653    4.51387073917521   -0.53792419015168
H        69.33641517521433    4.45826937618745   -0.52201869773871
H        71.93384852569424    4.49547173909298   -0.51358966656424
H        73.84911221378040    2.60916203611442   -0.29526589808822
H        73.82800702684899   -2.61851244077541    0.26924488263104
H        71.89756994707615   -4.49036578890790    0.47885346744368
H        69.30040241915152   -4.43288236115717    0.48101116654891
