324
 energy: -572.002856016802 gnorm: 0.000260317897 xtb: 6.4.1 (bd6e46d)
Zn       41.70452755786451   -0.00281496251926   -0.01383141656946
C        44.23296567504849   -3.44135977100920    0.02880849383937
C        45.18767098315864   -2.47987729181767    0.02191602181876
C        44.50029140182662   -1.22017146358375    0.00550493160516
C        45.14077357064696    0.02996138868687   -0.00848302507918
C        44.47660958210307    1.26762348275445   -0.02330328116521
C        45.13992283913136    2.54020454775939   -0.03600822188492
C        44.16710520159808    3.48334373139121   -0.04458878221932
C        42.91323542320525    2.78457069108427   -0.03734942161241
N        43.13341384230283    1.43963980568227   -0.02496130460279
C        41.67296829178259    3.40058526860171   -0.04140344557799
C        40.44514847103743    2.75985882370979   -0.03594929738351
C        39.17278630263358    3.42956180447501   -0.04100347194772
C        38.22454492355315    2.46395934628934   -0.03575909111978
C        38.91689408666051    1.20340497648078   -0.02738180648678
N        40.25909546838782    1.41384281114984   -0.02701552148950
C        38.29661240810780   -0.03533546472362   -0.02202380002424
C        38.94037849091324   -1.26201700293393   -0.01324488005827
C        38.27217108438809   -2.53554891175561   -0.00769466399316
C        39.23862282024153   -3.48287820093772    0.00311948735657
C        40.49798095974565   -2.78901726805208    0.00410188993360
N        40.28633363846865   -1.44680122647451   -0.00667737504758
C        41.73776145226989   -3.40618155398136    0.01599251530362
C        42.96605327424981   -2.76661588558548    0.01645847133539
N        43.16061872041413   -1.41774507363607    0.00326691378954
H        44.36001220355953   -4.50668994731650    0.04095687023098
H        46.25436200187045   -2.59529839047761    0.02720112774998
H        46.20424452888816    2.67588022093100   -0.03771879269222
H        44.27387059634651    4.55091773135250   -0.05482749586694
H        41.66360143300318    4.48169900041726   -0.04995931166004
H        39.04222300681094    4.49473056191965   -0.04774408950805
H        37.15718338575306    2.57529037430622   -0.03729356821315
H        37.21564595279019   -0.04565036453044   -0.02477367019043
H        37.20713507510071   -2.66723032324075   -0.01163220844746
H        39.12837423049486   -4.55034155536926    0.00983644738871
H        41.74899167702419   -4.48726906226296    0.02563326046284
Zn      153.73801282631914    0.03586915815538   -0.01436287908842
C       151.21558549800983    3.42646223552366    0.58532044248609
C       150.25920061654369    2.48108015839880    0.41947596780793
C       150.94438356936618    1.23935282991191    0.19965512881570
C       150.30173298000850    0.00881833816194   -0.01470090346877
C       150.96363574714724   -1.21129290475262   -0.22945454485917
C       150.29809207204491   -2.46351439812181   -0.44995829152542
C       151.26925445552570   -3.39376148705971   -0.61557547215034
C       152.52436383214592   -2.70753875610626   -0.49568659691214
N       152.30656193518288   -1.38272962586756   -0.26149598490328
C       153.76355650306277   -3.31621947492537   -0.60386728731121
C       154.99250063657854   -2.68716400441712   -0.49400694970691
C       156.26369454487093   -3.34886670440974   -0.61095114237158
C       157.21362946132561   -2.39928103173105   -0.44519396019280
C       156.52350329047266   -1.15651214787348   -0.22684892249020
N       155.18093214204291   -1.36166174648175   -0.26162845908708
C       157.14597221257381    0.06269770661677   -0.01399580661704
C       156.50436807196110    1.27194780656594    0.19887098145508
C       157.17482137776170    2.52531831481744    0.41793100523505
C       156.21003047053921    3.45979246557831    0.58377456901201
C       154.94944235341811    2.77825256925666    0.46606643476583
N       155.15873281822186    1.45595593149239    0.23328971660726
C       153.71074401974499    3.38795576631751    0.57536988220579
C       152.48132800501563    2.75995040080245    0.46628871463004
N       152.28442309319914    1.43184622442812    0.23219626069115
H       151.09039927394812    4.47580671074237    0.77084931927083
H       149.19271278018178    2.59642546357142    0.44118336658477
H       149.23352383011306   -2.59542742340852   -0.47237318239050
H       151.16062228532553   -4.44488249337028   -0.80149301661446
H       153.77102070352143   -4.38100799942832   -0.79132243940812
H       156.39240421179582   -4.39828019951158   -0.79491529459511
H       158.28079548279143   -2.51066714945731   -0.46543801575596
H       158.22695798958534    0.07120833943897   -0.01388635608828
H       158.24009566480251    2.65345941527666    0.43859661599124
H       156.32213294565295    4.51100901790789    0.76831462950118
H       153.70138712680327    4.45268039613356    0.76309288226718
C        46.53838636733333    0.04298454625463   -0.00776226564511
C        47.75835740049195    0.05284378116706   -0.00788399107510
C        49.09450607643147    0.06235564086421   -0.00798126358184
C        50.31890186607924    0.06900918850229   -0.00835949782126
C        51.65493010150210    0.07239689647895   -0.00913603006644
C        52.87510854041510    0.07403782589546   -0.01012554312297
C        62.54401747630317    0.04889292054568   -0.02242833163640
C        63.76430673892504    0.04647119751180   -0.02364477761284
C        65.10003289742329    0.04356475814888   -0.02513905103777
C        66.32463882624414    0.04221074730066   -0.02543997270664
C        67.66035993252176    0.04027942012851   -0.02591338244035
C        68.88065419854546    0.03950473204309   -0.02569908885506
C        78.54877549599236    0.03684142989155   -0.01744424105435
C        79.76905363778333    0.03838793924852   -0.01867959265254
C        81.10472028604940    0.03990269574644   -0.02025314948398
C        82.32930742116676    0.04227889094689   -0.02236611549426
C        83.66497554953112    0.04357226910596   -0.02421872116794
C        84.88525047818068    0.04529678697159   -0.02623322798664
C        94.55277010754456    0.03966370454044   -0.01754647292939
C        95.77303584498044    0.04015970075222   -0.01982037359447
C        97.10868164485748    0.03982853023024   -0.02241424375669
C        98.33325149765083    0.04265029509253   -0.02518328678713
C        99.66889370445851    0.04229980191326   -0.02746408909971
C       100.88916027988968    0.04289514598680   -0.02781805243894
C       110.55672967878702    0.03326272235443   -0.01715021580604
C       111.77700880144985    0.03408546784792   -0.01820394625138
C       113.11268334330826    0.03656084329543   -0.01842275655732
C       114.33726708358203    0.04071369940692   -0.01997240649931
C       115.67294446629147    0.04348033563914   -0.02197729689951
C       116.89321993602083    0.04602707959457   -0.02434862216214
C       126.56146048685549    0.04588727988262   -0.02243946322244
C       127.78175072154328    0.04347798768252   -0.02266549555903
C       129.11748803337446    0.04036251880411   -0.02343934747470
C       130.34208246090591    0.03686481824845   -0.02395954786694
C       131.67782243399259    0.03157961047717   -0.02530434349425
C       132.89810992943791    0.02921619753315   -0.02465963981143
C       142.56711249938749   -0.00768368078914   -0.00780278833044
C       143.78724707585258   -0.01009980465976   -0.00724122048706
C       145.12337830254717   -0.01179904952959   -0.00746489141760
C       146.34774531739725   -0.01086034091271   -0.01028953149181
C       147.68402519515806   -0.00692776835430   -0.01177609428244
C       148.90398001430194   -0.00148921295857   -0.01406604358601
Zn       57.70971716393060    0.06197936112654   -0.01592423356144
C        55.20689878244792   -3.37252175617562    0.36584411326411
C        54.24487055565799   -2.42365146940074    0.26172354362114
C        54.92267039912094   -1.16680994236054    0.12289441150302
C        54.27207963190219    0.07125555860853   -0.01147498255013
C        54.92885355256731    1.30578719528712   -0.14722141382390
C        54.25744858198443    2.56624792423756   -0.28413756808499
C        55.22429497679239    3.50995017194196   -0.39070563394335
C        56.48169355299945    2.82287081459049   -0.31848628859808
N        56.27075638110320    1.48445374075582   -0.17017199727257
C        57.71835631077047    3.44104499663871   -0.39105502572965
C        58.95169985005342    2.81590561588148   -0.32542674428496
C        60.21265254968372    3.49572823294312   -0.40494205663967
C        61.17462537902293    2.54680106476854   -0.30122633267588
C        60.49675551828521    1.29037724768570   -0.15863559214147
N        59.15591198484216    1.47639791674843   -0.17628254847575
C        61.14728375251016    0.05266276062314   -0.02057075958056
C        60.49048463112710   -1.18151904873326    0.11928420068432
C        61.16197560543753   -2.44157123728687    0.26003866566600
C        60.19519169913131   -3.38529007959499    0.36650359151762
C        58.93772405049874   -2.69867945842733    0.29035809066502
N        59.14872198852308   -1.36030797161095    0.14051550771572
C        57.70120927168324   -3.31712061816276    0.35942173201767
C        56.46775562028785   -2.69222792709742    0.29022104331185
N        56.26362863192517   -1.35268570990122    0.14240213019951
H        55.08804634354278   -4.43239557839584    0.48278463944125
H        53.17909683132358   -2.54608188978796    0.27586578644895
H        53.19228592882700    2.69432680209074   -0.29543794571601
H        55.11085834235510    4.57046365109062   -0.50726132498663
H        57.72105933269173    4.51568816628684   -0.51048530598684
H        60.33153096134015    4.55537458863620   -0.52392952875543
H        62.24041775745084    2.66891894495819   -0.31769207101887
H        62.22713580906809   -2.56942549672233    0.27366885403409
H        60.30864981999718   -4.44555230889149    0.48528967437060
H        57.69836645749513   -4.39175899296642    0.47886900325077
Zn       73.71479970113958    0.03786725480067   -0.02098366132443
C        71.21924785928860   -3.40017475195885    0.37722911205802
C        70.25526770515491   -2.45414368748258    0.26555842854700
C        70.93050354598016   -1.19672018730841    0.11976600731027
C        70.27737224749659    0.03887831596887   -0.02485458382083
C        70.93153149757717    1.27409399477244   -0.16825122784343
C        70.25733532415144    2.53190675965687   -0.31557129943605
C        71.22209974417947    3.47738120787084   -0.42513888233817
C        72.48098487153592    2.79402170833477   -0.34432590652556
N        72.27293871341800    1.45595154242741   -0.18828075168630
C        73.71622112182905    3.41496508467421   -0.41598116905148
C        74.95089956201925    2.79330423786698   -0.34225581705628
C        76.21040931367844    3.47578282451408   -0.42122983331488
C        77.17433041225095    2.52971862349474   -0.30960432148891
C        76.49900357676890    1.27242816312367   -0.16276942949000
N        75.15780383744459    1.45513140412236   -0.18526553745848
C        77.15210408169638    0.03688178506556   -0.01750079249693
C        76.49808150221685   -1.19823596616104    0.12690293679493
C        77.17234264247243   -2.45593546388181    0.27503581739012
C        76.20761397959039   -3.40142834661312    0.38462600505726
C        74.94866700548808   -2.71819985235812    0.30301962836541
N        75.15670974301683   -1.38013219398647    0.14668104436764
C        73.71344458020084   -3.33915435384527    0.37381726636709
C        72.47871140958952   -2.71752894974306    0.29931702479350
N        72.27176664020617   -1.37933925142253    0.14280275241178
H        71.10259717952789   -4.45955150669742    0.50068516818426
H        69.18973960258062   -2.57887691925475    0.27864418863227
H        69.19191493416683    2.65725614343033   -0.33110885151628
H        71.10635883535322    4.53682446978213   -0.54887313030647
H        73.71664627031994    4.48889406848712   -0.54164960370595
H        76.32711713079684    4.53507641016129   -0.54533554430670
H        78.23986215906432    2.65434189824155   -0.32332714478532
H        78.23778041956970   -2.58116612922512    0.29105437642010
H        76.32341056326779   -4.46081347288181    0.50882958910117
H        73.71295432430470   -4.41310266289305    0.49934160550605
Zn       89.71904774752915    0.04274924304322   -0.02175970350183
C        87.22234360909844   -3.39446303467778    0.37728776699876
C        86.25877208726696   -2.44813454088099    0.26480119490244
C        86.93456192743272   -1.19101335955660    0.11877751502910
C        86.28191605811138    0.04479017618662   -0.02641122862793
C        86.93631743552574    1.27969407817742   -0.17088863933695
C        86.26242993461301    2.53751422742854   -0.31959800155408
C        87.22744278510051    3.48267922367709   -0.42960399983410
C        88.48616527770312    2.79912396537303   -0.34759300295819
N        88.27775305369020    1.46121149735498   -0.19058319051935
C        89.72157879305347    3.41972407378546   -0.41878685275906
C        90.95604600795851    2.79771771689487   -0.34397760860426
C        92.21581195853223    3.47975155650164   -0.42263264856166
C        93.17938044560456    2.53338795346997   -0.31041637780154
C        92.50357100999440    1.27639050374774   -0.16341357593581
N        91.16243302393534    1.45954201892998   -0.18641135077117
C        93.15612346676461    0.04066370651553   -0.01745146296679
C        92.50170773097665   -1.19414151593365    0.12790052161866
C        93.17564635844026   -2.45183893707194    0.27752643118267
C        92.21066993776972   -3.39699783394085    0.38781128052139
C        90.95193018119451   -2.71357001372238    0.30499835565300
N        91.16030236243809   -1.37570280671999    0.14745744288521
C        89.71653765622364   -3.33422989345414    0.37553690955625
C        88.48208620247507   -2.71229375070397    0.29972187608000
N        88.27570290322842   -1.37409179602973    0.14241423007884
H        87.10525217460476   -4.45375129005188    0.50105699454337
H        85.19320333525329   -2.57251188774247    0.27733768859642
H        85.19703270499757    2.66303560797006   -0.33580470326803
H        87.11198911141284    4.54203028599508   -0.55439577181656
H        89.72238879241465    4.49359030314367   -0.54497726636680
H        92.33292691510692    4.53897656319771   -0.54693248633823
H        94.24495923885685    2.65763698595324   -0.32378206086852
H        94.24104415849266   -2.57730231939104    0.29404407573657
H        92.32616631861400   -4.45626927761630    0.51323537147174
H        89.71569854025792   -4.40806688751816    0.50196117840403
Zn      105.72289378310320    0.03758996306413   -0.02325039893346
C       103.22451445314485   -3.39847689768098    0.37527582332201
C       102.26139006016808   -2.45166008893383    0.26307833740242
C       102.93778190917587   -1.19484568741977    0.11716314624303
C       102.28580601863460    0.04129782145570   -0.02798137212401
C       102.94080455740270    1.27590379795790   -0.17225441781204
C       102.26745875897254    2.53404527443802   -0.32079924520807
C       103.23288484375747    3.47877599450790   -0.43080550962064
C       104.49130158578231    2.79464320237502   -0.34887643184426
N       104.28229835084495    1.45680268229046   -0.19196672606590
C       105.72698373072457    3.41465742791772   -0.42003321875920
C       106.96114948829405    2.79204635878369   -0.34513650875150
C       108.22121217758881    3.47353507863991   -0.42352162097521
C       109.18434062514078    2.52675762693375   -0.31103559238560
C       108.50796286489455    1.27004651426971   -0.16416261916769
N       107.16691023070987    1.45378070740371   -0.18756861642909
C       109.16005318551169    0.03406842114847   -0.01791961380275
C       108.50507404141814   -1.20048539109680    0.12691994693003
C       109.17834524319025   -2.45853282954756    0.27646143833580
C       108.21287377314962   -3.40326501662821    0.38617494410506
C       106.95448424625577   -2.71922503178571    0.30315044451526
N       107.16354230175845   -1.38143556300853    0.14593736256965
C       105.71878197618925   -3.33936517457341    0.37340032770578
C       104.48459847444545   -2.71690153152630    0.29774428315731
N       104.27883109198545   -1.37857094870042    0.14068528356941
H       103.10689660970685   -4.45772845237516    0.49887374806649
H       101.19575584446736   -2.57550084566865    0.27575007169127
H       101.20211801970879    2.66005442733550   -0.33691404394536
H       103.11789759590219    4.53818745623725   -0.55551133875398
H       105.72831592851014    4.48852417278324   -0.54619925887511
H       108.33879962480344    4.53270958342378   -0.54779158964166
H       110.24997032077815    2.65056437649649   -0.32414851958258
H       110.24367805586995   -2.58449905797480    0.29332430515753
H       108.32781086771126   -4.46262109684700    0.51140475302703
H       105.71748289308272   -4.41323669140084    0.49954419812659
Zn      121.72725074739989    0.04646708082727   -0.02505843395732
C       119.23288942858295   -3.39202108878086    0.37790643927180
C       118.26861424204576   -2.44624820333279    0.26690047002533
C       118.94347031562486   -1.18876304326496    0.11957841156584
C       118.28989963466822    0.04657382412462   -0.02539872881016
C       118.94348144742159    1.28174406022968   -0.17132054935497
C       118.26878525801817    2.53913674019350   -0.32009436539210
C       119.23318433402540    3.48469685036367   -0.43199688978955
C       120.49238006691999    2.80183478597231   -0.35106024249935
N       120.28479731120872    1.46391826797115   -0.19283383023623
C       121.72739833968269    3.42294966608413   -0.42411442233389
C       122.96237317004433    2.80175053002783   -0.34987607613870
C       124.22159024316133    3.48463401306671   -0.42979242558344
C       125.18593014767166    2.53907922123546   -0.31715692054688
C       124.51117247697783    1.28168935297985   -0.16887943671922
N       123.16982798724514    1.46387659131568   -0.19139007617781
C       125.16472858990595    0.04650916310933   -0.02272219150121
C       124.51095815114144   -1.18873157755392    0.12237687274202
C       125.18558959875077   -2.44618626303021    0.27077306355098
C       124.22115755096561   -3.39190358780947    0.38110795915565
C       122.96204313868652   -2.70904056183966    0.29980404178903
N       123.16961777738786   -1.37101070935460    0.14275753357351
C       121.72703500079349   -3.33038003946293    0.37180794803059
C       120.49213690355724   -2.70915574360154    0.29817863706683
N       120.28473770451122   -1.37106570750448    0.14114183175772
H       119.11658761692549   -4.45135460633318    0.50204556567385
H       117.20313210782518   -2.57120324909372    0.28131667093903
H       117.20329883164888    2.66411661436768   -0.33498751984326
H       119.11700543906728    4.54390160605785   -0.55738473625182
H       121.72750652771815    4.49671339049187   -0.55122399479613
H       124.33783801646955    4.54383644008271   -0.55512170526402
H       126.25141790397556    2.66409460794035   -0.33115927283075
H       126.25104605057116   -2.57117139825972    0.28642414305338
H       124.33727415655548   -4.45120351716857    0.50570353577877
H       121.72699547302584   -4.40426453134289    0.49784894207300
Zn      137.73242779008351    0.01043320171452   -0.01721472788737
C       135.22443851300730   -3.42306544809794    0.34048434657069
C       134.26383548740424   -2.47247052716069    0.23943238439120
C       134.94352271433019   -1.21583057586571    0.10781142158080
C       134.29485961312767    0.02351856695470   -0.02414383692942
C       134.95354308021609    1.25771375748398   -0.15470638962927
C       134.28391517763620    2.51931627921167   -0.29046134148128
C       135.25207997033732    3.46250284298779   -0.38872613081711
C       136.50854779304981    2.77406506410335   -0.31231202302042
N       136.29556910616665    1.43510863533453   -0.17071495717758
C       137.74596530737151    3.39153399528676   -0.37345452021788
C       138.97850802926479    2.76497888131851   -0.30276282953177
C       140.24037349572228    3.44434768359542   -0.36977663458149
C       141.20100735521504    2.49392458545117   -0.26704559775097
C       140.52137083765788    1.23705201578514   -0.13768399088660
N       139.18065644866678    1.42447785458251   -0.16128573819973
C       141.17003121073256   -0.00255086203126   -0.00913709802647
C       140.51143349621157   -1.23709890396160    0.11696396566331
C       141.18098943469445   -2.49899644738034    0.24986859584811
C       140.21276276597382   -3.44220788240181    0.34771498351713
C       138.95636626429481   -2.75343350458190    0.27407919361375
N       139.16925036258993   -1.41446310070418    0.13392742902798
C       137.71880353740343   -3.37079032942890    0.33767032311777
C       136.48637738157862   -2.74402584335330    0.27047505675538
N       136.28410618238894   -1.40337727233783    0.12918037762659
H       135.10404724758217   -4.48336996548986    0.45184055945948
H       133.19787171307740   -2.59362452915051    0.25087408432930
H       133.21893978379578    2.64843724129649   -0.30670587852919
H       135.14017067390458    4.52353045884718   -0.50202836146186
H       137.75037342281746    4.46679139681992   -0.48715520754895
H       140.36077320477588    4.50470078193859   -0.48065340119104
H       142.26696247609956    2.61528689007566   -0.27648161166070
H       142.24596020422538   -2.62824526505879    0.26493974317937
H       140.32464722499614   -4.50341759558884    0.45931429851526
H       137.71455441368630   -4.44611824800999    0.45070654563428
