222
 energy: -399.239898858928 gnorm: 0.000547343492 xtb: 6.4.1 (bd6e46d)
Fe       42.12203432139166    0.03589911152222   -0.01004787857147
C        44.55548709805400   -2.12015354397606    2.66567537533546
C        45.56475300091937   -1.54201336694860    1.97337575149932
C        44.94987394451455   -0.74131196464226    0.95929241009026
C        45.64818929169540    0.02110187769067    0.01989617235738
C        44.97104726140189    0.78916605928399   -0.93085015184651
C        45.60974567234175    1.58276056486976   -1.93576410806458
C        44.61741866126525    2.17057179267560   -2.64415567965315
C        43.37890808462922    1.72822900066187   -2.07089794924435
N        43.61598782123520    0.87716810963405   -1.02381527383223
C        42.14921195973264    2.13730536573511   -2.54863212443660
C        40.90943872164198    1.75586841810096   -2.07532065064663
C        39.68008783098075    2.23500843171103   -2.64405987615628
C        38.67508191004787    1.65310600894279   -1.95193558009935
C        39.29348806507222    0.82042580517759   -0.96137730890163
N        40.65356932495750    0.89348549187551   -1.04550193234724
C        38.61267598061180    0.04345565213623   -0.04541969486216
C        39.27170168611123   -0.73561430836775    0.88451703823231
C        38.62994632611925   -1.56475992100550    1.86319021400802
C        39.61831613014697   -2.14955537063326    2.57644731997348
C        40.86100805026831   -1.67636934490852    2.03205154885395
N        40.62952496919736   -0.81397940542313    0.99648343325894
C        42.08933501385673   -2.06476953485326    2.52907083347558
C        43.33052143050833   -1.66577739481576    2.07279107137087
N        43.59262052599760   -0.81675787758448    1.03016850053613
H        44.61479827340847   -2.79066063813077    3.50120214121408
H        46.62312799071896   -1.62707914879312    2.12407229142134
H        46.67105732351445    1.65628377236648   -2.07058305972504
H        44.69679874886516    2.83949961210433   -3.47924834652758
H        42.15960444028441    2.82535814666289   -3.38215620799041
H        39.61894579567117    2.92414580383474   -3.46440266428764
H        37.61573452150078    1.76183149952116   -2.08232727224995
H        37.53377937562231    0.04543158721201   -0.05648873317638
H        37.56773100003901   -1.66935627276119    1.97184786193161
H        39.53760060509049   -2.83760452488563    3.39601160944017
H        42.07960577928466   -2.75205532358249    3.36323036549669
Fe       97.49494338693229    0.03616393652002   -0.00821774907080
C        95.01997403896657    2.42018266973566    2.42336647922784
C        94.02224818301590    1.75564608140087    1.79481065306030
C        94.65264433834113    0.86688981422145    0.86733618168955
C        93.96859264579405    0.00430260142788    0.00699033565071
C        94.66065105862013   -0.85175353621866   -0.85339823980327
C        94.03827288602402   -1.75791811519264   -1.76935886505330
C        95.04217805089166   -2.41066555259878   -2.40032963100570
C        96.27150161733314   -1.89424122903010   -1.87083064007967
N        96.01728951790041   -0.93447635145150   -0.92683811722175
C        97.50910951833804   -2.34135940046665   -2.29056418492575
C        98.74122955117639   -1.89280745963911   -1.85768002329446
C        99.97981359406144   -2.41841576586624   -2.36172419590474
C       100.97336708263357   -1.74411992871566   -1.74052138251092
C       100.33878655508478   -0.80889506214627   -0.85756521756332
N        98.98024030569793   -0.91191618962677   -0.93562993098062
C       101.00403520598690    0.08411875464718   -0.04142802902983
C       100.32953561634500    0.95620508706043    0.78962129415088
C       100.95471192437000    1.90610387052689    1.66359829554499
C        99.95504001596309    2.54783432493756    2.30896964340750
C        98.72207765735025    1.98912437648715    1.82726264505192
N        98.97041986447574    1.01965907522706    0.89545565962572
C        97.48650952890614    2.40292644773588    2.28419317476114
C        96.25355613547228    1.93044582150958    1.87869751567181
N        96.00821503365420    0.97240911263243    0.93061516895326
H        94.94737085332039    3.17152904462240    3.18585777524259
H        92.96243630927616    1.83509719368875    1.93803644785211
H        92.97889920450436   -1.85735566499313   -1.90262645242262
H        94.97649399991082   -3.16923015972577   -3.15626221215798
H        97.51240427661639   -3.12033944897996   -3.03986409799609
H       100.05453114228469   -3.19862811535154   -3.09473055144763
H       102.03473792344876   -1.85230172190553   -1.85384200172268
H       102.08281753519778    0.10013299371759   -0.05242263949688
H       102.01459746096995    2.04497257355766    1.75528708776688
H       100.02213305744742    3.32674059340424    3.04410089462442
H        97.48270353951132    3.17747323504151    3.03808461104274
C        47.04939954448522    0.01674027665623    0.02749987469537
C        48.26182133241009    0.01639642378779    0.02972018368263
C        58.12491399906409    0.02031306145486   -0.06551315636833
C        59.33790298993012    0.02464749573990   -0.07021900993761
C        69.20129201729989    0.06843238546907    0.01970081185409
C        70.41415000905201    0.06965036667539    0.01984909691675
C        80.27841182209247    0.04565755187435   -0.03440234062848
C        81.49138497902531    0.04153385277290   -0.03777143915287
C        91.35494026876643   -0.00042914085211   -0.00154026265102
C        92.56740590335068    0.00017211139652    0.00489875848190
Fe       53.19307632989554    0.01841824483901   -0.01474114160697
C        50.74310126910503   -3.09311215867671    1.41368984206395
C        49.73724445312099   -2.27677912979966    1.02078907427436
C        50.35685225816185   -1.09280538177197    0.50918140844505
C        49.66260647904883    0.01839183823699    0.02360789710448
C        50.34661338679704    1.13143346338469   -0.47267371426694
C        49.71647797956744    2.31788217481266   -0.96537281131660
C        50.71373585264986    3.13522125443230   -1.37756382541413
C        51.94612795595162    2.44407420892785   -1.13075456423335
N        51.70111966335960    1.22127424390836   -0.56323657982287
C        53.17716027216944    2.97238909011319   -1.46562344499811
C        54.41385609880225    2.39346893395837   -1.26013300548607
C        55.63835885192650    3.01815735154610   -1.66928165807650
C        56.64409831734859    2.19780104696968   -1.28464853460081
C        56.02777736555660    1.08089221509072   -0.63708783825756
N        54.67246700087912    1.19902776530949   -0.64053388436938
C        56.72466671424897    0.01795647332403   -0.05480856684334
C        56.04058052281082   -1.04544253190269    0.54167943286299
C        56.67097696898846   -2.16330692381588    1.17387224590449
C        55.67385095411957   -2.98359425597295    1.58041803376009
C        54.44054656454002   -2.35738219591396    1.20115849169068
N        54.68553788307744   -1.16281951347229    0.57609741245352
C        53.20855843444956   -2.93420062693661    1.43862888485856
C        51.97009631634887   -2.40428565287272    1.13504634088122
N        51.71295805350931   -1.18306488852151    0.56976352680941
H        50.67984447769251   -4.07061138047104    1.85147185158228
H        48.67838644654335   -2.44284661399791    1.05677108007713
H        48.65739371016243    2.48592704556869   -0.97497837949486
H        50.64130545746539    4.11495794843179   -1.80887069320035
H        53.17212730786437    3.94290547692412   -1.94149403102345
H        55.70027786216566    3.95822150365402   -2.18267593162019
H        57.70066046915358    2.31332629018915   -1.42525181306421
H        57.73044127233466   -2.27942551612228    1.28993747063805
H        55.74696895574146   -3.92453909409961    2.09072425257286
H        53.21432727859877   -3.90440536071259    1.91513710663341
Fe       64.26991301835270    0.04600546689933   -0.03261286060394
C        61.81782086998622   -3.33765242731264    0.46716323829121
C        60.81395409223882   -2.45095158815843    0.27077699947091
C        61.43249410819685   -1.17077442970788    0.11179185219582
C        60.73814600749950    0.02937383238013   -0.06773514301120
C        61.42513879105604    1.23493648555059   -0.23907975331753
C        60.79800224452740    2.50890545799903   -0.41396336344798
C        61.79719403749662    3.40424120985774   -0.59397114431943
C        63.02854953890031    2.67255509951364   -0.51976801086837
N        62.78020496937607    1.34515212535985   -0.28733134260121
C        64.26178248597120    3.26917524998253   -0.69294303097501
C        65.49849878105671    2.65979956036526   -0.61513454048072
C        66.72667777369409    3.36966066587533   -0.82694048145304
C        67.73058071851621    2.48224048744655   -0.63385009589983
C        67.10888949773103    1.23755629972762   -0.30026257475018
N        65.75317207447064    1.34941941581207   -0.30620362456834
C        67.80106817056185    0.06379459960853    0.01164697218785
C        67.11312465467061   -1.11613004376507    0.30942214415757
C        67.73846647379894   -2.35423456662958    0.66028835504330
C        66.73908265044183   -3.25232333177332    0.82543630493569
C        65.50974364750958   -2.55544812744520    0.57981034938883
N        65.75886993882712   -1.24199256359806    0.27947760433729
C        64.27810386721350   -3.17838606944273    0.62274641494034
C        63.04336289108858   -2.59406601176302    0.42060688792007
N        62.78734531206038   -1.26859814413263    0.18599556813878
H        61.75382840648002   -4.39635059608011    0.62904564806658
H        59.75740310179363   -2.62688890575644    0.22354395640493
H        59.73916130941711    2.67510650180661   -0.38877553799884
H        61.72664111631322    4.46184621747077   -0.76022561671098
H        64.25879898298727    4.32791221350670   -0.91084851778723
H        66.79220898439276    4.40816012593810   -1.08841922151696
H        68.78931498399527    2.63222886332658   -0.71321417759347
H        68.79601774167865   -2.49269364921436    0.77061782608796
H        66.80828455410320   -4.29014575554058    1.08866496327353
H        64.28081697483783   -4.23766168055356    0.83799342044942
Fe       75.34607111405776    0.05858080165965   -0.00507905323725
C        72.87080150612127   -3.31064023578396   -0.48911739022624
C        71.87216342452882   -2.40215672053567   -0.38997816389697
C        72.50076289850830   -1.13482524589893   -0.17574793249990
C        71.81440358459383    0.06790432837674    0.01574136580158
C        72.50813049715047    1.26733845373391    0.20017539079951
C        71.88910275534613    2.53795094671412    0.42219032303584
C        72.89391799981652    3.44083238314238    0.51079890983587
C        74.12008311254161    2.71486789912886    0.34716785562799
N        73.86352718032964    1.38055834005845    0.17148623502805
C        75.35639707002927    3.33008657260422    0.34462001820207
C        76.58820180509564    2.72084431583631    0.20958474377291
C        77.81881805886543    3.45738299374788    0.19655851118941
C        78.81747408864364    2.54992090453677    0.08880819200008
C        78.19073307556894    1.26462447253256    0.04301217638205
N        76.83621892269504    1.37753280788317    0.09992105600071
C        78.87815716047241    0.04929177273310   -0.02818197105196
C        78.18448772752507   -1.16278888279468   -0.09318460295651
C        78.80417155072887   -2.45080391275062   -0.15445164056565
C        77.79954737224004   -3.35285264378759   -0.25229104614244
C        76.57258712646703   -2.61017424533783   -0.24272687290321
N        76.82875004812237   -1.26888232362560   -0.13137287573828
C        75.33560740181954   -3.21301292254715   -0.35838922740945
C        74.10280436806801   -2.59130427189590   -0.34114984318739
N        73.85570272601963   -1.25532167555624   -0.16267549317402
H        72.79954452823470   -4.36932697834130   -0.64799956236854
H        70.81291545537529   -2.55203110671542   -0.46215783347080
H        70.83153304369525    2.69403702111078    0.50569738274918
H        72.83029622143117    4.49970581710040    0.67173384203478
H        75.36025522105450    4.40489023847083    0.45956387526072
H        77.88925006961526    4.52607926024957    0.26045743304545
H        79.87552769871776    2.71390604586817    0.03301823465653
H        79.86216783317606   -2.62005047851223   -0.11593062925835
H        77.86376028684667   -4.42141619178918   -0.32423060320936
H        75.33203752532907   -4.28762782451097   -0.47494701414313
Fe       86.42333244076623    0.02301741084520   -0.02919327973855
C        83.95208347322195   -3.08389453345178   -1.42500892838741
C        82.95280458456027   -2.23201375659172   -1.09603109226674
C        83.57903585882364   -1.07136100382631   -0.54154170162746
C        82.89168065943882    0.03731230810503   -0.03872039561961
C        83.58533990875645    1.14234295707884    0.46357448466366
C        82.96498054476854    2.31119419570698    1.00744366161508
C        83.96891785722285    3.15751091868344    1.33639537135447
C        85.19630920033320    2.49679978733195    0.99856127519398
N        84.94096086624587    1.25602658942940    0.47608720154306
C        86.43253242968852    3.08611926401134    1.17511548483110
C        87.66601954316231    2.52763395060230    0.90413735229977
C        88.89795623650599    3.23263543143974    1.11102495035378
C        89.89717560871109    2.38080007094774    0.78165642761891
C        89.26866512389104    1.15959263795643    0.38030310546279
N        87.91350528896767    1.26145060225288    0.44326706716531
C        89.95420358165707    0.00573326419482   -0.00924746882611
C        89.26104106098796   -1.14029604528742   -0.40809345536971
C        89.88162690107349   -2.36691050446959   -0.80508721718158
C        88.87776268893364   -3.20763463175012   -1.14853305802452
C        87.65072613784558   -2.49066117954762   -0.95434940087520
N        87.90564509332913   -1.22804980355152   -0.48717814347755
C        86.41490326652276   -3.03568792542120   -1.24158172949128
C        85.18251528567127   -2.43544386374262   -1.07475293350569
N        84.93385527553309   -1.19552127951634   -0.54721385854398
H        83.88211578358231   -4.06023330710300   -1.86433705908719
H        81.89456908077196   -2.35316041045895   -1.21843561159561
H        81.90707171638275    2.44166811100018    1.12250711601343
H        83.90412975079691    4.13755693043464    1.76818742410429
H        86.43494026330980    4.09243581949107    1.56971479466989
H        88.96882976918839    4.24419581304916    1.46155938213178
H        90.95674754705155    2.54553037766010    0.79241383002068
H        90.93957415630813   -2.54215521489824   -0.80423348971719
H        88.94245812635891   -4.21911241621020   -1.50051126479137
H        86.41175426783565   -4.04045603159445   -1.64010817645380
