158
 energy: -268.920904216626 gnorm: 0.000939475086 xtb: 6.4.1 (bd6e46d)
C       -18.31724233545864   -2.79556403367757    1.95791662912489
C       -17.20715387487639   -2.15840239893281    1.53771103141595
C       -17.66284409755913   -0.91515320869929    0.94128442011188
C       -16.79141679917137    0.03410072253124    0.37693719794141
C       -17.20215922467792    1.24411830667848   -0.20313465945722
C       -16.37496451615955    2.24301698364897   -0.78466803617301
C       -17.18930172550120    3.24853444183754   -1.21853229937110
C       -18.53149625188325    2.88590256184534   -0.91240967201291
N       -18.48672855365950    1.66965867042137   -0.30154945177496
C       -19.67076776228393    3.62898823474799   -1.18300945025622
C       -20.98502201285659    3.28958015003573   -0.89293069652441
C       -22.11124373316508    4.15062924464991   -1.22457178800220
C       -23.21447467850940    3.50521691564045   -0.80332711942988
C       -22.75350465383078    2.25555724700014   -0.21796192185727
N       -21.40904956708008    2.16053144063268   -0.28855844901097
C       -23.60997836661101    1.30854569928274    0.32931545687435
C       -23.22182225379806    0.10574624536458    0.89864674455188
C       -24.05096347587923   -0.90070172913044    1.47213976924482
C       -23.23938312151217   -1.90493465377511    1.90957119409054
C       -21.89323368166972   -1.53890501434611    1.61516094141689
N       -21.93624274754494   -0.32387024215709    1.00766124119343
C       -20.75245793098932   -2.27593831182908    1.89441355941176
C       -19.43703492455966   -1.93510116567053    1.61328995516492
N       -19.00176985157159   -0.80878661753688    1.00195729721477
H       -18.40559149600423   -3.74468720426753    2.45078218156563
H       -16.18083356413821   -2.46360407634280    1.60663340173062
H       -15.30597705282972    2.18658376422162   -0.85333236286939
H       -16.89838259572067    4.15898007095895   -1.70535484587863
H       -19.28542129022887    1.14544338696245    0.03636954215004
H       -19.51456329885418    4.57857278320157   -1.67593671855482
H       -22.02786574912771    5.10428360198230   -1.70987093529143
H       -24.24216871400974    3.80852300197499   -0.86406556642850
H       -24.66783265163204    1.52748294898065    0.30963068906833
H       -25.12065377126388   -0.84951201861293    1.53433365456307
H       -23.53126885115588   -2.81780861356942    2.39171187810278
H       -21.13948361460317    0.20594106260498    0.67558193144016
H       -20.90647086407878   -3.22584639083712    2.38762393601594
C        17.98997233480805   -1.78913935828357   -2.55104210833855
C        16.95594511309273   -1.16167906531682   -1.95759195128379
C        17.54412909689309   -0.15593032472947   -1.09094438419933
C        16.77768309804600    0.71633088761222   -0.29231770992197
C        17.31849097906140    1.70966971186115    0.54118743150586
C        16.60601065865979    2.63020359525239    1.35524964108945
C        17.52598668560646    3.41444129376199    1.98971640441818
C        18.81997818526848    2.98777019057293    1.57872661524182
N        18.64155326536357    1.95904141741887    0.70408090016108
C        20.03464525071707    3.51307515817899    1.99434603476666
C        21.30455542997771    3.09984316038725    1.61618155711186
C        22.51820755218115    3.71876536320323    2.12958024661459
C        23.54518000879318    3.06346171421247    1.55763551923781
C        22.95090075399204    2.05181899077033    0.69747872718079
N        21.60348422911382    2.10269704584314    0.75798990235320
C        23.69955766333870    1.17018729377527   -0.07201765704195
C        23.18245408153054    0.19700318922065   -0.91316482783194
C        23.89666281991057   -0.72557563013510   -1.73011570197758
C        22.97957389946996   -1.48869211535408   -2.39025062392033
C        21.68171393915495   -1.05369237777054   -1.99274386998347
N        21.85724123642299   -0.03995535033491   -1.10486204168575
C        20.46631483411356   -1.56522176967734   -2.42295469693338
C        19.19642079039910   -1.16258738478191   -2.03755008154305
N        18.88526636551099   -0.17862465564352   -1.15965889079075
H        17.97439139670814   -2.59292022340189   -3.26181295975368
H        15.90279871853485   -1.33187170840766   -2.07044387403072
H        15.53724023071979    2.67561845050285    1.43376920684532
H        17.33669369944056    4.21398514566537    2.67922506073885
H        19.37770227801877    1.44308783457757    0.23620790184753
H        19.98328474361853    4.33367637132139    2.69657809778659
H        22.53919143191620    4.53417981905738    2.82712584262258
H        24.60018960683714    3.21886759650216    1.67851732933201
H        24.77530550958959    1.25157830692895   -0.01288821804955
H        24.96577233162879   -0.78541062589617   -1.79434279031679
H        23.16984945392928   -2.28106778616732   -3.08801766029265
H        21.12307872256799    0.48050979309226   -0.64011457333899
H        20.51582145599315   -2.37504687263449   -3.13786780966796
C       -15.41641424382739   -0.23306964198447    0.38721591550152
C       -14.21791147752751   -0.44655156787968    0.38973896718539
C       -12.88931862486246   -0.65037713783424    0.39315059315469
C       -11.68275281555559   -0.81303031204762    0.37969484995076
C        -1.89089627201819   -1.23005965978397   -0.09571232779681
C        -0.67452381331618   -1.17308195003830   -0.15105065003946
C         0.66256649104793   -1.08451872779777   -0.19833224812165
C         1.87613697138885   -0.97617628827012   -0.23851299627647
C        11.63005944190849    0.19033836587048   -0.33277336353401
C        12.84204198132467    0.32082800436869   -0.33837982590964
C        14.17509754603856    0.46394743465724   -0.33320268275631
C        15.38765028198545    0.58700837444250   -0.32109448197665
C        -9.51547282710539   -2.30689098408313   -2.87179268099613
C       -10.43357126475273   -1.88711707378355   -1.97951638265303
C        -9.68616262134315   -1.45674021867768   -0.81211729057180
C       -10.29104866886134   -0.95753375963519    0.35646571143500
C        -9.57706971673403   -0.57491217697607    1.50272331137790
C       -10.10058567458526   -0.09563253047300    2.73256890597187
C        -9.04122712811311    0.15210113556799    3.55768133310335
C        -7.84940867726884   -0.16423252661207    2.84685934195370
N        -8.22525408533173   -0.60368164326522    1.61470483484315
C        -6.55202792378294   -0.02493111462253    3.32014118502367
C        -5.36350059779102   -0.27847373043605    2.65443623158825
C        -4.06559884107441   -0.04371730867406    3.26467007203335
C        -3.14568365237185   -0.37029524217003    2.33600510668274
C        -3.89339836725852   -0.81010959712314    1.17236651442977
N        -5.21718967427638   -0.74461496093320    1.39067411213527
C        -3.28396411525837   -1.25843659085851   -0.01712136323904
C        -4.00028754448146   -1.72483506197553   -1.13189003750838
C        -3.47830082226719   -2.22169054935691   -2.35476022443718
C        -4.54031108183923   -2.55250813221099   -3.14717781429045
C        -5.73211434158813   -2.25907372277127   -2.42672451981139
N        -5.35340595567434   -1.76710993922268   -1.21500256516273
C        -7.03024568743440   -2.42515748137258   -2.88876956365912
C        -8.21827029369374   -2.11914128448673   -2.24309652526104
N        -8.36303111245980   -1.60715628256591   -0.99826305894113
H        -9.66421451497609   -2.70141136464026   -3.85859051334004
H       -11.50274566573597   -1.86118530051234   -2.06489102024007
H       -11.14413717745194    0.03480564967799    2.94357736305158
H        -9.07164061445327    0.52281085601722    4.56376274389476
H        -7.61510148289810   -0.90940268828820    0.86453367236115
H        -6.45959580209948    0.34445167939592    4.33255821402013
H        -3.91744329846800    0.32382277303834    4.26187818342454
H        -2.07532667807260   -0.33558404151759    2.39831859007620
H        -2.43396794195101   -2.30916950739502   -2.58327269211192
H        -4.51138180037510   -2.95810056988105   -4.13977894689822
H        -5.96269352675470   -1.46163895552069   -0.46398706308132
H        -7.12390217387357   -2.83060345544230   -3.88722250286164
C         3.99023514489501    1.66672644981513    2.20714893405994
C         3.08953672329425    0.90345590441878    1.55787399238762
C         3.85171108475160    0.09715946975380    0.62230794187251
C         3.26369389272410   -0.83055621087131   -0.26161689900111
C         3.99612079775181   -1.61285816870146   -1.17012408448287
C         3.49761721199836   -2.57170855622520   -2.08998315362008
C         4.56977295219908   -3.09302430058192   -2.75666914651486
C         5.74386666112861   -2.46261119332518   -2.25790301227159
N         5.34535098567081   -1.57711412040204   -1.30366272055227
C         7.04560718926471   -2.71306805623441   -2.67045021302133
C         8.21859852037394   -2.12722488953699   -2.22226560254843
C         9.52201801941173   -2.49487809823504   -2.74971687502595
C        10.42291628303568   -1.73291242938571   -2.09901421226279
C         9.65827532833296   -0.90845847217139   -1.18175125333507
N         8.34323028164327   -1.16589026564532   -1.27550230435748
C        10.24350234957591    0.03736960151905   -0.31604655487594
C         9.50800434472803    0.83737401919618    0.57532260330352
C        10.00460929777460    1.81248986987911    1.47889551543111
C         8.93295114198631    2.33166827701142    2.14807441159117
C         7.76125822239384    1.68375032686856    1.66688987534305
N         8.16011382320960    0.79274348018427    0.71796708809207
C         6.46162511250195    1.91881751392036    2.09476339205907
C         5.29103080052240    1.31787432797603    1.66113282056669
N         5.16550781239776    0.36368212053697    0.70716984056879
H         3.82708283277919    2.39662560032997    2.97662887227791
H         2.02359418792551    0.86504208908355    1.67196064336789
H         2.46143377969138   -2.81981632511575   -2.21346644183388
H         4.55844593402965   -3.84376847990132   -3.52273718140123
H         5.93821907249687   -0.96617233829571   -0.75234627720818
H         7.15530722615085   -3.46304479506099   -3.44225310565688
H         9.68657519111064   -3.23505653995214   -3.50905325313630
H        11.49039003158545   -1.70488539216876   -2.20191382972730
H        11.03941923909618    2.07090312356129    1.59181767712606
H         8.94316869103746    3.09135848420299    2.90524726244431
H         7.56848895519059    0.16980915939487    0.17887192209514
H         6.35179677524587    2.66852933934962    2.86674324858185
