119
 energy: -216.510656877415 gnorm: 0.000313561016 xtb: 6.4.1 (bd6e46d)
Co       11.94762727930718   -0.00618333118108   -0.01132538915760
C        14.44196038888984   -3.41583256840556    0.09348768003182
C        15.39431834953870   -2.45588229056786    0.09343903454194
C        14.70471500043103   -1.20309207250525    0.04054146926585
C        15.36974089803032    0.02409201804277   -0.00270837912398
C        14.68345415635924    1.23947649479871   -0.04453811814164
C        15.35111626917230    2.50444641251470   -0.08739818213093
C        14.38204815924261    3.44751998732305   -0.08381228843578
C        13.13393314992378    2.74826340439059   -0.04041194335882
N        13.32951238194511    1.39197923634573   -0.02486253679492
C        11.91494984982666    3.38953076326254   -0.00005079372216
C        10.70894083698991    2.72429377240681    0.03254162086853
C         9.44355705550926    3.39724100521526    0.07239323924184
C         8.49666483457459    2.43435766090961    0.06077761777712
C         9.19096474190865    1.18045787757940    0.01467803352663
N        10.54471890549083    1.36729245523420    0.00627788592482
C         8.54543580832536   -0.03627570522734   -0.03509127283153
C         9.21291864784266   -1.24153963056527   -0.07260094676835
C         8.54156117675787   -2.50769168059360   -0.12340110468805
C         9.50526020949470   -3.45378438688270   -0.11438337623507
C        10.75785566068627   -2.75841786093456   -0.05882051056258
N        10.56944730949863   -1.40443180322728   -0.04248120633818
C        11.97492251466180   -3.40197218349239   -0.00726294334869
C        13.18197243864849   -2.73894948058171    0.03967020452576
N        13.35375345382065   -1.37952495399790    0.01639506773551
H        14.55926731909430   -4.48152454279737    0.12442152289008
H        16.46131672776168   -2.56097346361564    0.12443539034840
H        16.41624441653414    2.62847645914848   -0.11327260704779
H        14.48076127235766    4.51533481163177   -0.10672480112069
H        11.90582849529863    4.46890108133183    0.00383550418042
H         9.32384874594283    4.46293752932654    0.10249221842880
H         7.42886290707770    2.53610452475559    0.07952957802971
H         7.46623986802486   -0.04574804103704   -0.04348984202883
H         7.47614282999534   -2.62837263054205   -0.15841550502817
H         9.40476760030742   -4.52156174282025   -0.14061164767059
H        11.98492341314970   -4.48133802361312   -0.00473238717458
Co       43.90313243921930    0.02606789444323   -0.00818346781372
C        41.41821556430206    3.36705252594443    0.71361692640331
C        40.46309729313202    2.42655698464415    0.53555476759381
C        41.14923369756508    1.20237303587287    0.25550842816626
C        40.48108030330576    0.00489954683570   -0.00810672823332
C        41.16412486383869   -1.18593427932028   -0.26327729007049
C        40.49302930176152   -2.42134010041733   -0.53019918040676
C        41.45943484026799   -3.35328069802274   -0.69138648496753
C        42.70942655637450   -2.67651447270469   -0.52352562138201
N        42.51761175064763   -1.34367538313706   -0.26910869439485
C        43.92658108683302   -3.31840949828320   -0.59620095657986
C        45.13444598273492   -2.67228197025942   -0.44914759613488
C        46.39808864824107   -3.34456974361268   -0.53203718308720
C        47.34759375563107   -2.39637566639865   -0.37952754930263
C        46.65660559663365   -1.15229156992387   -0.20281278570169
N        45.30232892229625   -1.33199879347022   -0.23809566511275
C        47.30521435828491    0.05293238462010   -0.04040833723658
C        46.64088268346932    1.24673826172573    0.14148377890426
C        47.31554202113705    2.49991463883855    0.31710728141531
C        46.35463343066665    3.43027716484301    0.50410395313876
C        45.10034934842642    2.73874998176099    0.43930026649835
N        45.28498460040470    1.40401157275017    0.20817571005462
C        43.88528506165834    3.36474886849579    0.61198624161658
C        42.67638582390468    2.70752715901495    0.53835211133571
N        42.50077653552728    1.37588490938440    0.26647968217946
H        41.30386290422813    4.40934414684256    0.93941278964159
H        39.39634188053481    2.52766403785447    0.58368647679535
H        39.42762920089948   -2.53541459613989   -0.57961144157114
H        41.35782043131349   -4.39989934319914   -0.90287548752136
H        43.93269751656605   -4.38170963947218   -0.78191351178990
H        46.51496318398198   -4.39941065665671   -0.68887806563182
H        48.41516695024050   -2.50208555650826   -0.38315081191316
H        48.38438028258100    0.06174628103914   -0.05258198904379
H        48.38109061001050    2.62302524789285    0.29817811408023
H        46.45805792859109    4.48483509818772    0.67188099432493
H        43.87835422614162    4.42546559955946    0.81190859943167
C        16.76671398690807    0.03574801619834   -0.00310229124201
C        17.98602851681822    0.04503308428514   -0.00544917619355
C        19.32259066301551    0.05180015668998   -0.00626886376003
C        20.54641043745610    0.05846431134127   -0.00822863274465
C        21.88284717116613    0.05815115850811   -0.00983161612936
C        23.10236746883697    0.05671160005277   -0.00945171727576
C        32.74820213176231   -0.01393887582400   -0.02318669718179
C        33.96767292994031   -0.01729600309744   -0.02353422909674
C        35.30421053914161   -0.01766729921666   -0.02342426245896
C        36.52798566310666   -0.01453728907903   -0.01995586217504
C        37.86465225203906   -0.00922081903977   -0.01693286436838
C        39.08395501032292   -0.00298055198446   -0.01229108702642
Co       27.92528332657024    0.02241394609439   -0.00719768865401
C        25.43247786489492   -3.36859186709479    0.39161485624432
C        24.47827611865447   -2.41676902197837    0.28155327234149
C        25.16644281648453   -1.17087464648821    0.13366889521316
C        24.49873134786798    0.04773798695883   -0.00790329230525
C        25.18423962889935    1.25670963375655   -0.14556507704571
C        24.51452584183793    2.51328329542449   -0.28746897793984
C        25.48267781123979    3.45187190049142   -0.38922361109809
C        26.73135310756198    2.75754276158959   -0.30915962819179
N        26.53760997992431    1.40900125292520   -0.16015371435636
C        27.95016744420575    3.39566853956042   -0.37615668981376
C        29.15936208073751    2.74003619573057   -0.30411605084293
C        30.41818944813771    3.41648072707826   -0.37794384396909
C        31.37234184396812    2.46344264614729   -0.27859516534934
C        30.68411193492217    1.21598795802809   -0.14470916292584
N        29.33312809926257    1.38823724426736   -0.15984134968220
C        31.35172470359404   -0.00436329755600   -0.01934361013299
C        30.66626795883170   -1.21389106029164    0.11305650263524
C        31.33597613125898   -2.47133607237957    0.24727975703732
C        30.36786457574113   -3.40857204101616    0.36098682313404
C        29.11921551843380   -2.71281168698137    0.29386169360473
N        29.31292529855992   -1.36475092676182    0.14058292039872
C        27.90045595381665   -3.34916799423206    0.37681451959670
C        26.69125672303367   -2.69315087101691    0.30856564661762
N        26.51740477982837   -1.34279584227025    0.15135813107887
H        25.31722630791372   -4.42762910562371    0.51640992269719
H        23.41108692801242   -2.52302520563862    0.29641488047797
H        23.44897404421357    2.63507130477162   -0.30358156276016
H        25.38316987624001    4.51327749793546   -0.50740240975402
H        27.95818434402845    4.46881513078038   -0.49271231216930
H        30.53352285442149    4.47680970642772   -0.49115671030662
H        32.43953842227633    2.56984448789187   -0.29240047971262
H        32.40149672586684   -2.59436528084792    0.25188548884974
H        30.46735833703749   -4.46997052990642    0.47919320460604
H        27.89247774629042   -4.42152337191190    0.50044566337557
