193
 energy: -351.740150690599 gnorm: 0.000688164948 xtb: 6.4.1 (bd6e46d)
Co       29.00073818624201    0.00442847422931   -0.00640025620091
C        31.49732209623427   -3.40616321957035    0.04005303563137
C        32.44938786656560   -2.44625208178705    0.01741893898914
C        31.75889667351581   -1.19288946529308    0.00347962438578
C        32.42322464240814    0.03507738346409   -0.00537005919659
C        31.73686555845340    1.25076692741729    0.00567756231501
C        32.40476811224556    2.51622437455006    0.02544324343237
C        31.43561340069612    3.45888620343761    0.04739616727657
C        30.18707308181941    2.75906459024383    0.03556001919280
N        30.38267027342593    1.40293696492080    0.01171638961553
C        28.96734769239725    3.40016681888155    0.03441500981966
C        27.76128680307234    2.73525285266242   -0.00248135112966
C        26.49598348535522    3.40890202037391   -0.03075947390764
C        25.55000139122180    2.44620755359916   -0.07768169035912
C        26.24461150371626    1.19168574886738   -0.07177471060733
N        27.59776496583057    1.37813404328714   -0.02756149357075
C        25.59944985046907   -0.02604186967607   -0.09325647942522
C        26.26634285474456   -1.23177548797491   -0.06098014486932
C        25.59408500067087   -2.49841662184692   -0.05537523192201
C        26.55720584754823   -3.44386705968399   -0.00670134062640
C        27.81046554076576   -2.74773316695506    0.01132514072735
N        27.62276028935187   -1.39383666748311   -0.02019176407332
C        29.02825316698719   -3.39124394531217    0.04171096776014
C        30.23646568652886   -2.72875918922472    0.03466690401962
N        30.40772074801702   -1.36933448036069    0.01231759485881
H        31.61509653861108   -4.47216492540834    0.05638065969545
H        33.51679701787695   -2.55094977374532    0.01219024060064
H        33.47016275642230    2.63990887872581    0.02485282890155
H        31.53417419150790    4.52676405426447    0.06727429477902
H        28.95775582364282    4.47936375146308    0.05347913492855
H        26.37582294976531    4.47489747574452   -0.01816554176588
H        24.48258506855456    2.54836235395769   -0.11067643731939
H        24.52074993341636   -0.03590544285106   -0.12650345722179
H        24.52850584966234   -2.61964635371323   -0.08279505052365
H        26.45610762178842   -4.51172589202579    0.01324579995349
H        29.03773207231898   -4.47041275624519    0.06238541974769
Co       82.69556856716024    0.03894876006996   -0.00511429166280
C        80.20810682085494    3.40455935371801    0.58657669825358
C        79.25372255916125    2.46564385525625    0.39682713633097
C        79.94086231413617    1.22790554232203    0.18756765977735
C        79.27338129060097    0.01779131288202   -0.01052638099660
C        79.95652846007700   -1.18697088983886   -0.18603170334672
C        79.28548916610607   -2.43849152147192   -0.36292160382599
C        80.25230939647039   -3.37327068067139   -0.50352676834644
C        81.50253513633484   -2.68183535525711   -0.41615562837360
N        81.31034513509037   -1.33985176901467   -0.21602260064373
C        82.72023445990736   -3.31380993486530   -0.54483855647991
C        83.92751935232953   -2.65274928459707   -0.48539659545385
C        85.19047631116462   -3.31168662520934   -0.64762629794695
C        86.13879872100019   -2.35734941807770   -0.53011375138495
C        85.44799168522475   -1.12359731788711   -0.29133295083373
N        84.09467135994991   -1.31292367578469   -0.27083006889249
C        86.09675174755407    0.07542135582604   -0.08873457731198
C        85.43341407590121    1.25633945033859    0.16630500825969
C        86.10930688472601    2.49798417549538    0.40681951199433
C        85.14859640478170    3.42325072461667    0.61838448230238
C        83.89316121118628    2.74104681087356    0.49959852826215
N        84.07725823863987    1.41375127175305    0.22812508755146
C        82.67691416163521    3.37609533401019    0.62407652748137
C        81.46707901839193    2.73116914595592    0.48548508640059
N        81.29243026055887    1.39489820134946    0.23711505644964
H        80.09303724839290    4.45400960536358    0.77602933062612
H        78.18671041351971    2.57450349985685    0.39828593046806
H        78.21979153527181   -2.55918958478712   -0.37341872696320
H        80.15113338815337   -4.43022135079988   -0.65563527461998
H        82.72693095903868   -4.38040985900351   -0.71046816981872
H        85.30763679292913   -4.36277236543578   -0.82774238250411
H        87.20555735253762   -2.45322781173649   -0.59120248383941
H        87.17545630781551    0.08822962351565   -0.12074597556773
H        87.17542536823640    2.61753520469711    0.40975473252831
H        85.25263409324459    4.46947249054718    0.83176533224341
H        82.67017922113034    4.43561054239950    0.83022931712467
C        33.82116257782953    0.04697311896530   -0.01239662844795
C        35.03862414155898    0.05579269537830   -0.01659234702903
C        36.38101388832327    0.06205935992571   -0.01914345856405
C        37.59861276370803    0.06484251689224   -0.01963541791461
C        47.24659003512312    0.05351302247019   -0.02589760166111
C        48.46435189543963    0.05492677191244   -0.01958382072407
C        49.80635952873911    0.05064020100863   -0.02063001353184
C        51.02412771988992    0.04577445436993   -0.01603017143237
C        60.67233886893774    0.03904043840760   -0.02227103838832
C        61.89012441469699    0.03709694094346   -0.02391223176298
C        63.23215324822091    0.03302478898717   -0.02601163240961
C        64.44991728609527    0.02660669043253   -0.02390099130179
C        74.09781755918617   -0.00255775685841   -0.02726069762178
C        75.31537369541356    0.00015832156042   -0.02689589306975
C        76.65786806726415    0.00295699923454   -0.02380029513239
C        77.87529838325219    0.01040524808722   -0.01916542386575
Co       42.42250935865447    0.06039286653867   -0.02060395947743
C        39.95127187813578   -3.34734236119318    0.36730918412507
C        38.99111383647126   -2.40138728986196    0.25873339698164
C        39.67129881028822   -1.15047508527630    0.11644324667142
C        38.99606279265038    0.06417299261824   -0.02028775316350
C        39.67383643720986    1.27727219136799   -0.15707949491662
C        38.99631379567957    2.52961108735240   -0.29946488633224
C        39.95849969526650    3.47356425097546   -0.40760283247051
C        41.21160488850862    2.78691909008860   -0.32973188870993
N        41.02632928954985    1.43772545538097   -0.17599295383446
C        42.42632787739836    3.43213342863423   -0.40325894963673
C        43.63978982209096    2.78448747387432   -0.33049616678176
C        44.89426930553970    3.46844721628279   -0.40933148214630
C        45.85450786991779    2.52218914768195   -0.30368837693608
C        45.17441722292739    1.27133182434369   -0.16089524712295
N        43.82234057546901    1.43483401017064   -0.17787665333433
C        45.84944112932003    0.05663595897030   -0.02310364293301
C        45.17130971957455   -1.15631834969815    0.11559158249680
C        45.84902450191301   -2.40857307617233    0.25779096488588
C        44.88700347330020   -3.35252029286416    0.36764173819939
C        43.63386613724882   -2.66599262390555    0.29043419849244
N        43.81899060626214   -1.31687088669924    0.13557268695870
C        42.41911993212931   -3.31098191206598    0.36484113752779
C        41.20579654559937   -2.66332404846513    0.29009167169693
N        41.02340006348282   -1.31379044963765    0.13582837005247
H        39.84288982370609   -4.40756066612690    0.48822157987564
H        37.92460877833322   -2.51399755727923    0.27125198706391
H        37.93000988161323    2.64430221996333   -0.31254529433353
H        39.85237544862932    4.53398547889555   -0.52894092619533
H        42.42734584245790    4.50474882680589   -0.52491444590958
H        45.00257839383400    4.52883036839044   -0.52915418234173
H        46.92100613920054    2.63469554567988   -0.31784158652510
H        46.91532452375645   -2.52338389158538    0.26919407430533
H        44.99329115189544   -4.41286302902088    0.48923861843537
H        42.41787136031535   -4.38342432775087    0.48797655381620
Co       55.84825738221741    0.04191991558333   -0.01997055324951
C        53.37854820841924   -3.36447154973976    0.39468879848048
C        52.41775270856748   -2.41936063664997    0.28397095720439
C        53.09712640283179   -1.16929704859328    0.13103327378873
C        52.42125467673105    0.04379502457794   -0.01639648601300
C        53.09868642629842    1.25609465768197   -0.16436882509073
C        52.42044088433607    2.50678697213868   -0.31709941015497
C        53.38204946107675    3.45080864798972   -0.43000223011848
C        54.63547331917501    2.76576476866667   -0.34484105778491
N        54.45096321360971    1.41740709917283   -0.18275220404632
C        55.84982185838331    3.41166422837777   -0.41795651004660
C        57.06364158221011    2.76563948736680   -0.33750116753609
C        58.31767484415763    3.45059640021654   -0.41437465984522
C        59.27849861466822    2.50560272448356   -0.30303494531437
C        58.59917803240530    1.25443644066272   -0.15923892915325
N        57.24703906564544    1.41661917835634   -0.18008672934125
C        59.27519225899972    0.04037174559956   -0.02037477614376
C        58.59779100357214   -1.17289407805601    0.11935777322927
C        59.27595269260289   -2.42484995176310    0.26175580082379
C        58.31428381642594   -3.36892414774110    0.37375627177874
C        57.06086890544713   -2.68268996812623    0.29824424695006
N        57.24547292763582   -1.33378304966445    0.14087849561602
C        55.84652492909469   -3.32770943387168    0.37926699982935
C        54.63262278853072   -2.68070477630335    0.30816027597751
N        54.44925089459465   -1.33214935467123    0.14688907631708
H        53.27088196112206   -4.42394470054834    0.52262076904687
H        51.35129670208665   -2.53208189145288    0.30108820140990
H        51.35412278260583    2.62075314743921   -0.33238241812171
H        53.27521816020918    4.51029840598364   -0.55853994434168
H        55.85022556937237    4.48361303534452   -0.54535231095430
H        58.42524911535536    4.51071432518010   -0.53698970771251
H        60.34493361270000    2.61913210555282   -0.31409183690631
H        60.34227968512483   -2.53942103062109    0.27201814286874
H        58.42102877948621   -4.42914545625220    0.49611380671144
H        55.84623424721623   -4.39980179844128    0.50551631861871
Co       69.27376507119247    0.01171015838177   -0.02252144331874
C        66.79565177135244   -3.38898848786385    0.38331568380085
C        65.83737500928778   -2.44050416672907    0.27997832325808
C        66.51995800617144   -1.19244430115850    0.12501458860189
C        65.84708140128419    0.02222607598560   -0.02334502114096
C        66.52757557044490    1.23289026818785   -0.17017839229923
C        65.85280059035959    2.48537475470208   -0.32356997362720
C        66.81694182506759    3.42826765372815   -0.42353719417558
C        68.06845896983060    2.74071382721729   -0.33061857553857
N        67.88030334987255    1.39170819344068   -0.17853203618477
C        69.28434535760339    3.38582135030041   -0.38224185837166
C        70.49629416043169    2.73701356598240   -0.29600077682396
C        71.75217618662576    3.42080230889938   -0.35013643423896
C        72.71035554206917    2.47201383625360   -0.24921272382265
C        72.02761795576662    1.21960387393124   -0.13470900167536
N        70.67589345843827    1.38515671142323   -0.16021611381798
C        72.70025144560888    0.00079968991052   -0.02560935260895
C        72.02002114303684   -1.21348656851525    0.08558579152100
C        72.69494502714556   -2.47009941472470    0.20026048474279
C        71.73091837394786   -3.41257438609359    0.30491782977819
C        70.47930548291248   -2.72080908320502    0.25252555885394
N        70.66724848243169   -1.37033814182029    0.11427339085016
C        69.26339751597177   -3.36182972999302    0.34183467741500
C        68.05146758781660   -2.70934859147498    0.28965465204068
N        67.87165665531636   -1.35956442924750    0.13453232120707
H        66.68523042054328   -4.44835183736099    0.50993884979568
H        64.77067081433879   -2.54971524007762    0.30308221798522
H        64.78684108814012    2.60128689419607   -0.34723670533072
H        66.71314515359487    4.48858804941732   -0.54751229339742
H        69.28760499944724    4.45919608281876   -0.49690010170617
H        71.86278701949111    4.48271072955348   -0.45277893850936
H        73.77705565485412    2.58349954502193   -0.25124486424979
H        73.76096245561111   -2.58823838049359    0.20013694605405
H        71.83491786511989   -4.47505455408267    0.40886847961375
H        69.26008350415526   -4.43500206257827    0.45842417773192
