242
 energy: -451.652112630906 gnorm: 0.000976316733 xtb: 6.4.1 (bd6e46d)
Ni       29.82673169662898   -0.00121067355723   -0.00831710929268
C        32.33000362741006   -3.41092621904196    0.02529800753963
C        33.28064021736223   -2.44940788852902    0.01642558726474
C        32.58962177866409   -1.19525314348188    0.00707463792391
C        33.25429615926070    0.03500245247945    0.00445776739454
C        32.56382456493061    1.25088044914997    0.00622995454397
C        33.22826897179784    2.51931088731700    0.01713900626885
C        32.25757284818688    3.46062231321327    0.02054887550871
C        31.00831746568203    2.76022270039497    0.00919951176348
N        31.21109626242593    1.40575797771043    0.00171376775002
C        29.78679546116567    3.40120527212389   -0.00055602179678
C        28.58056769684178    2.73222734563853   -0.02260049229732
C        27.31208629243287    3.40220440115555   -0.04502521144223
C        26.36715200735770    2.43757398687289   -0.06633826063706
C        27.06247666045008    1.18231488569423   -0.05464905100733
N        28.41391049697652    1.37648740925964   -0.02925512120270
C        26.41704995844960   -0.03736921948133   -0.06109907143178
C        27.08788476661134   -1.24308392882323   -0.03902392364754
C        26.41906464972570   -2.51270539723764   -0.03388339005570
C        27.38416162242446   -3.45700903077290   -0.00666615335868
C        28.63835341309953   -2.76034678353795    0.00228499580035
N        28.44317603828630   -1.40853999206462   -0.01641673772009
C        29.85853818912003   -3.40361795707900    0.02024382245001
C        31.06626739513675   -2.73699789241835    0.01838377095944
N        31.24044635411574   -1.37857440463502    0.00708278157264
H        32.45027555449334   -4.47675167537359    0.03439461162269
H        34.34819633954182   -2.55379192153903    0.01734321340544
H        34.29341635054942    2.64600987817382    0.02267207341084
H        32.35529952151112    4.52874596532581    0.02883994130065
H        29.77564698698477    4.48041514905984    0.00488439577944
H        27.18957871338887    4.46803499363790   -0.04479596980424
H        25.29926522585786    2.53845531539035   -0.08690972771733
H        25.33814104914245   -0.04879701445622   -0.08021889848298
H        25.35346363552683   -2.63620631406026   -0.04839475681658
H        27.28413539941308   -4.52511374234051    0.00546341555306
H        29.87024192589223   -4.48276823626021    0.03221115685595
Ni      109.78574221351612    0.03360693803687   -0.00972272975330
C       107.29057789123755    3.38882556878472    0.62945453387567
C       106.33778174495824    2.44814494400513    0.44084892913813
C       107.02589385865203    1.21341705814050    0.21183399792757
C       106.35813335001886    0.00441514846309   -0.00615035032899
C       107.04554923377886   -1.19567157843554   -0.21203652339777
C       106.37833386750569   -2.44551340014140   -0.42007045475068
C       107.34694941034049   -3.37499459249448   -0.58194117130177
C       108.59775325344388   -2.68551980002917   -0.47490588734693
N       108.39797192652452   -1.35013406296323   -0.24573889281847
C       109.81776792147951   -3.31637340481534   -0.60434149927712
C       111.02540967067023   -2.65552720193168   -0.51537803763003
C       112.29215893374233   -3.31200721233368   -0.66655768328056
C       113.23922153564376   -2.36044631972469   -0.52000800675708
C       112.54699215313917   -1.12720664763754   -0.27659505118238
N       111.19525055197555   -1.32088865888332   -0.27927301764609
C       113.19537194040890    0.07167086436859   -0.06078733660893
C       112.52755273648198    1.25347802841105    0.18745926372139
C       113.19943521742074    2.49826154790941    0.42916971854991
C       112.23662321855898    3.42316435267748    0.63264979423741
C       110.98072717380819    2.74034670984077    0.51050493806502
N       111.17267124184953    1.41504275771650    0.24111093005464
C       109.76202214426155    3.37326552959932    0.64128104221856
C       108.55274939428240    2.72253813653816    0.50994194574205
N       108.37548046654894    1.38912438441329    0.25243144714056
H       107.17274409682427    4.43602388279357    0.82945795708426
H       105.27048230543404    2.55449673268155    0.45328475501943
H       105.31292735752224   -2.56922565498120   -0.43480444317184
H       107.24685535796254   -4.42812936627377   -0.75917133838388
H       109.82645989034458   -4.37955533711454   -0.78986963364194
H       112.41215069579820   -4.36052488254956   -0.85947072795669
H       114.30671195796945   -2.45723262549247   -0.56554605312582
H       114.27423987640138    0.08447911263606   -0.08132002097472
H       114.26534098171807    2.61975336900503    0.43771926077549
H       112.33924574475013    4.47000041530421    0.84388101151340
H       109.75279694680478    4.43187028783475    0.85130925455941
C        34.65081405228441    0.04893117194398    0.00440451761775
C        35.87026845180514    0.05622509833432   -0.00009867894844
C        37.20667740507666    0.06260870670374   -0.00211387547616
C        38.43060044310158    0.06968420656994   -0.00385559953303
C        39.76687900282673    0.07107670902817   -0.00604580220962
C        40.98656489824351    0.07180811796260   -0.01007490428607
C        50.64442760755478    0.04439019297741   -0.01843635556090
C        51.86415343601848    0.03979130512940   -0.01562825565134
C        53.20016536534030    0.03609401061935   -0.01600458914842
C        54.42430264403799    0.03656923145732   -0.01368730880803
C        55.76033133567785    0.03499214519028   -0.01751561444702
C        56.98010633393839    0.03518061860892   -0.01955691882008
C        66.63804340419847    0.03802243587420   -0.01670224569219
C        67.85778646685955    0.03499366825718   -0.01399271565216
C        69.19382909595042    0.03562325037370   -0.01330379534659
C        70.41801143106817    0.03796631473573   -0.01162935820287
C        71.75404105078459    0.03793081739446   -0.01234661526725
C        72.97374239044325    0.04124360789578   -0.01496799027784
C        82.63183752993726    0.04657513824383   -0.02225643796543
C        83.85160212630946    0.04433147922929   -0.02345198100255
C        85.18764091248239    0.04329191590402   -0.02328011507285
C        86.41178512011324    0.04157043129344   -0.02133939743916
C        87.74783158482538    0.04057142206822   -0.02123459130740
C        88.96757729258681    0.03484422450742   -0.02288674876668
C        98.62563051206187   -0.01185933478880   -0.02245841095218
C        99.84527009208291   -0.01703173744316   -0.02170998461008
C       101.18164049927626   -0.01911484534428   -0.02143507815540
C       102.40555834571727   -0.01631919888128   -0.02425574797203
C       103.74206175954394   -0.01360205108229   -0.01678846446099
C       104.96146589067388   -0.00469211947216   -0.00928404602606
Ni       45.81564536600180    0.05775979979106   -0.01960228747462
C        43.33543826028381   -3.34890256259933    0.36642084416380
C        42.37693280775247   -2.40075552675942    0.26112783337197
C        43.05786056398028   -1.14917530025587    0.12045761459810
C        42.38245029105248    0.06826220057843   -0.01326026701213
C        43.06468758735795    1.28145772115801   -0.15000341996950
C        42.39086776490031    2.53706735478888   -0.28882434491283
C        43.35472498963610    3.47915414884632   -0.39963703886423
C        44.60829792653877    2.79130345564241   -0.32728897651885
N        44.41575785153592    1.44401916194625   -0.17353136562112
C        45.82518130417854    3.43538434540791   -0.40691097745316
C        47.03824958637337    2.78339722397268   -0.33631012658610
C        48.29575098287167    3.46293905692159   -0.41896667359342
C        49.25423274995992    2.51530027587520   -0.30928414975386
C        48.57328755299984    1.26442787510669   -0.16247402286302
N        47.22324534963112    1.43528770946691   -0.17960229783102
C        49.24872314903519    0.04789566124727   -0.02079440127181
C        48.56647897705750   -1.16497920541366    0.11989914226439
C        49.24030383299500   -2.41991836658947    0.26510157260193
C        48.27644415748072   -3.36252287526652    0.37103622449483
C        47.02284016193236   -2.67546636538927    0.29143772440940
N        47.21548695480483   -1.32804317472224    0.13812665812759
C        45.80606367259092   -3.32037353133016    0.36331217209142
C        44.59288106377611   -2.66869050997892    0.28947584241207
N        44.40797398419904   -1.32003822671348    0.13824831150081
H        43.22415097974754   -4.40905268211905    0.48535092233552
H        41.31026999168866   -2.51269584506808    0.27466160284339
H        41.32483313682648    2.65546658233850   -0.29776274428465
H        43.24947081762883    4.53985199198784   -0.51920395933210
H        45.82822987673014    4.50763195964878   -0.53041960222858
H        48.40700476764224    4.52244917634903   -0.54355761627717
H        50.32091721372989    2.62700236569055   -0.32457787430728
H        50.30632245917203   -2.53780779030016    0.27958985901781
H        48.38163294738872   -4.42307712924585    0.49183783557012
H        45.80296225565039   -4.39288063958127    0.48452001716287
Ni       61.80905311038497    0.03543059695289   -0.02370043146839
C        59.33964034576981   -3.37976306708503    0.35689280725777
C        58.37807564763532   -2.43509271623765    0.24816615463991
C        59.05496585979220   -1.18083440356759    0.11209086006299
C        58.37580492093250    0.03466514357590   -0.02049912411978
C        59.05442613804121    1.25018131200701   -0.15622204359095
C        58.37664701245547    2.50371385468264   -0.29483982450249
C        59.33751751394761    3.44860766487127   -0.40757058812458
C        60.59323467731551    2.76447982860722   -0.33702028455019
N        60.40488709649174    1.41674721744990   -0.18140552172476
C        61.80800835709998    3.41172594408839   -0.42198873457855
C        63.02318116519778    2.76342252903612   -0.35246588020063
C        64.27848262618978    3.44619579318329   -0.44134190624471
C        65.23996671838214    2.50204575712602   -0.32765473549584
C        64.56298962643960    1.25018855139038   -0.17108708756699
N        63.21241264319771    1.41679122392400   -0.18850731138189
C        65.24233838217670    0.03701645879759   -0.01920954322836
C        64.56386414524859   -1.17701530488144    0.12970764681271
C        65.24151773987161   -2.42857277826706    0.28557414224653
C        64.28057641704679   -3.37395553838513    0.39339055096626
C        63.02489743045533   -2.69203433831449    0.30319005013844
N        63.21337326858688   -1.34481342864646    0.14329235208837
C        61.81012136737578   -3.34142043653995    0.36943376659752
C        60.59489277990551   -2.69476008421263    0.28635084674490
N        60.40558911556025   -1.34677923390696    0.13424425689386
H        59.23181935480130   -4.44042994540705    0.47437140524119
H        57.31177899467586   -2.55101437761213    0.25677124200534
H        57.31026264860188    2.61904489102158   -0.30221143791323
H        59.22890392973972    4.50892285524084   -0.52752276869880
H        61.80764661673366    4.48356366686299   -0.54903099273873
H        64.38635690152979    4.50526141898395   -0.57247767488112
H        66.30629051463639    2.61684112747445   -0.34522011762481
H        66.30787167966872   -2.54252646282916    0.30572536777169
H        64.38908689993970   -4.43332065842725    0.52155896846272
H        61.81045931444856   -4.41358141992792    0.49371844347291
Ni       77.80280404183752    0.04326372673395   -0.02313964152372
C        75.33452069022889   -3.37004694623823    0.38087881421983
C        74.37265283049125   -2.42572440681533    0.27198868346096
C        75.04912565480184   -1.17254564597835    0.12428591837875
C        74.36945363307017    0.04165941353461   -0.01753404339791
C        75.04762600930293    1.25629014843865   -0.16286864145522
C        74.36945996414318    2.50850858128544   -0.31108051113752
C        75.33003801613131    3.45335271855125   -0.42661323606253
C        76.58600218727933    2.77059659142339   -0.34751707615408
N        76.39805075007222    1.42355093652355   -0.18550797388929
C        77.80057768322770    3.41881770061776   -0.42732305571527
C        79.01602251927930    2.77181916536602   -0.35038488659166
C        80.27107606045264    3.45580502965159   -0.43303198817063
C        81.23291444385676    2.51204594713528   -0.31896150620080
C        80.55639620196935    1.25926882222042   -0.16821337576082
N        79.20573344587532    1.42505378929598   -0.18830765731944
C        81.23612965111414    0.04560828847879   -0.02233031894540
C        80.55803315363787   -1.16914045697301    0.12243687394783
C        81.23615148822286   -2.42126834290260    0.27150854201416
C        80.27552216873441   -3.36665782497155    0.38209415322139
C        79.01959866798357   -2.68421639451983    0.29988846362243
N        79.20758211224052   -1.33682460411928    0.14101752504791
C        77.80499145028953   -3.33296025948454    0.37527688375921
C        76.58955861599702   -2.68586249210326    0.29951788842090
N        76.39978910270612   -1.33854834476841    0.14197363546112
H        75.22704197776470   -4.43001014027955    0.50484376632850
H        73.30639216459440   -2.54131396189410    0.28690897719981
H        73.30303000892789    2.62302887282719   -0.32255243936795
H        75.22112841804405    4.51282674290819   -0.55350225659872
H        77.79990156652208    4.49042744234325   -0.55627490041615
H        80.37859983342976    4.51531803689307   -0.56074263278654
H        82.29919314149174    2.62767656467061   -0.33270340367796
H        82.30256605996428   -2.53548572737400    0.28627429470080
H        80.38440488287205   -4.42631288629270    0.50748959536269
H        77.80570178347796   -4.40493592059249    0.50115462447583
Ni       93.79641571731446    0.01147881812533   -0.02179547414376
C        91.30930914759448   -3.38592397187898    0.39846807193671
C        90.35278728536277   -2.43631002593592    0.28877861723464
C        91.03625812202611   -1.18814880840474    0.13075367692678
C        90.36329751920523    0.02864648360584   -0.02068568402399
C        91.04808961710067    1.23883950096703   -0.17129027448960
C        90.37695894069132    2.49381944195297   -0.32794426522416
C        91.34281189025431    3.43403780143633   -0.43689064314066
C        92.59494603972118    2.74562733046448   -0.34636339775218
N        92.39941610106600    1.39951848872744   -0.18544953211344
C        93.81306899590834    3.38873339096324   -0.41107621865465
C        95.02482567493566    2.73575037621625   -0.32592164336801
C        96.28367108241724    3.41448237358495   -0.39271551843517
C        97.24019729396956    2.46483089651874   -0.28312629087318
C        96.55672000718658    1.21370306614242   -0.15101887525160
N        95.20692897216685    1.38659014227208   -0.17598213464754
C        97.22963594910631   -0.00573099343412   -0.02352623713586
C        96.54488377079318   -1.21845207436158    0.10435044231170
C        97.21595534821708   -2.47634760489684    0.23571965856109
C        96.25007422815005   -3.41636276127005    0.34647862830711
C        94.99802624725831   -2.72496815960772    0.28186393301505
N        95.19346083045379   -1.37782047913088    0.13081152523779
C        93.77981636528745   -3.36553271386500    0.36950299605385
C        92.56817519391733   -2.71013768854785    0.30619024571916
N        92.38594123255653   -1.36224210502574    0.14439492984762
H        91.19589292521896   -4.44448384352338    0.52899132777484
H        89.28591168195751   -2.54517027758353    0.30963088157877
H        89.31119518409497    2.61329837624301   -0.34792082508703
H        91.23986712172028    4.49384101093538   -0.56603530610284
H        93.81849513834752    4.46091628565240   -0.53506410899698
H        96.39715916903121    4.47479204913889   -0.50816631807905
H        98.30708391056844    2.57537079415428   -0.28918841777366
H        98.28169951618560   -2.59753712107659    0.24047481189557
H        96.35302109019220   -4.47774040404942    0.46187845907910
H        93.77449324545634   -4.43766662364969    0.49390991484526
