283
 energy: -499.041050049781 gnorm: 0.000700871764 xtb: 6.4.1 (bd6e46d)
Zn       35.78260461723939   -0.00078125430231   -0.01274464023179
C        38.31921667904533   -3.43382858133583    0.02155895197101
C        39.27115610791386   -2.46960399336852    0.02046345367106
C        38.58001504562073   -1.21188446949564    0.00844327945028
C        39.21679318546083    0.04003629857861    0.00191332484050
C        38.55067554665136    1.27646826335161   -0.00752725221806
C        39.21182402711960    2.55023617225054   -0.01086451874894
C        38.23727909460790    3.49159692743226   -0.01868150132014
C        36.98471023186794    2.79041866847910   -0.02005739169545
N        37.20731080442526    1.44586372758574   -0.01289560228816
C        35.74310877399559    3.40356775796639   -0.02797909408159
C        34.51706603715522    2.75943110358667   -0.03105856077053
C        33.24304122594269    3.42583492443180   -0.04029007907469
C        32.29729970515893    2.45777974540733   -0.04203047718270
C        32.99285180569346    1.19899146286879   -0.03327828240076
N        34.33447459252633    1.41288157571590   -0.02658153724636
C        32.37564866561689   -0.04130533816302   -0.03234171816649
C        33.02205028289264   -1.26660579495155   -0.02331747001983
C        32.35654694686182   -2.54157119220991   -0.02199275610072
C        33.32497632917025   -3.48686694476201   -0.01082145499111
C        34.58280962143584   -2.79035454777510   -0.00554388824118
N        34.36835423238222   -1.44853588271208   -0.01364086630413
C        35.82376713967822   -3.40513703217449    0.00631024672430
C        37.05041484598396   -2.76260747531933    0.01057159979402
N        37.24107614972672   -1.41313566410099    0.00339416834094
H        38.44939904043559   -4.49882821032035    0.02891396395316
H        40.33817540406412   -2.58194888687935    0.02663570187497
H        40.27591394927336    2.68781958069874   -0.00766970042251
H        38.34216918153960    4.55939881127436   -0.02327039934189
H        35.73106051306284    4.48466736276238   -0.03252624460832
H        33.10988139612162    4.49069126701801   -0.04509289120663
H        31.22968723739620    2.56636788615328   -0.04845148255410
H        31.29473516532824   -0.05413782078299   -0.03902490517613
H        31.29182379788323   -2.67552505576215   -0.02869783978305
H        33.21713708380363   -4.55458834160833   -0.00653915616559
H        35.83741489106095   -4.48620926200056    0.01232282175707
Zn      131.74555235686339    0.03466211894515   -0.01140678211552
C       129.21702071344180    3.41464195608103    0.62385918275747
C       128.26278404952293    2.46863775411817    0.44949843833021
C       128.95094511038013    1.23067995710550    0.21797909388108
C       128.31123807167580    0.00057323014355   -0.00626860484087
C       128.97438707093875   -1.21689602972198   -0.23077911841516
C       128.31025133677244   -2.46851266903037   -0.45891523146041
C       129.28257271307683   -3.39566825467452   -0.63473601240487
C       130.53679555069684   -2.70796955865383   -0.51384599128717
N       130.31738238387246   -1.38558361267675   -0.26784015526441
C       131.77693580092699   -3.31250321712787   -0.63312279774966
C       133.00450593635068   -2.68083964238813   -0.52286859495650
C       134.27694801370023   -3.33772482480751   -0.65229770813197
C       135.22499780313828   -2.38735941428972   -0.48037477888936
C       134.53245411766329   -1.14895811311914   -0.24546709616682
N       133.19032088944772   -1.35731541703621   -0.27729177692839
C       135.15261576017880    0.06927221027430   -0.02056301228085
C       134.50911466557622    1.27460849035144    0.20822511612609
C       135.17765058409344    2.52675802248107    0.43980255180888
C       134.21145485675694    3.45747223756908    0.61809845239144
C       132.95194873164829    2.77490960080491    0.49535200223823
N       133.16322938864440    1.45558908876262    0.24776674608872
C       131.71243628116622    3.38148302595614    0.61247132027296
C       130.48424778993891    2.75219873552399    0.49798069261050
N       130.29039878049184    1.42588581876011    0.25156193790225
H       129.08935620869454    4.46191112375269    0.81918411906757
H       127.19602078539775    2.58122550258238    0.47272446675090
H       127.24584115908689   -2.60216911651605   -0.47883189635398
H       129.17518661877898   -4.44551686445057   -0.82842404518310
H       131.78640258646536   -4.37545176738792   -0.83059536854498
H       134.40757418674357   -4.38472468525760   -0.84826601752508
H       136.29235014135557   -2.49557468849273   -0.50642832057784
H       136.23356536329516    0.08029404227253   -0.02378097955357
H       136.24270700272467    2.65671003294979    0.45968519916426
H       134.32182145563351    4.50679598513244    0.81410098223970
H       131.70132603309233    4.44422007743373    0.81097968337437
C        40.61395677503547    0.05552199412963    0.00472932921811
C        41.83375521301934    0.06482582166547    0.00643135496900
C        43.16947854859436    0.07321146187332    0.00495657074523
C        44.39369738288978    0.07750680009921    0.00232285572868
C        45.72927804294554    0.07793208697650   -0.00056007976587
C        46.94926523875893    0.07677127967068   -0.00386735015287
C        56.60949275688095    0.04076417807181   -0.02597928581889
C        57.82948932761639    0.03741769847620   -0.02712971573938
C        59.16451219309681    0.03633868417578   -0.02610219683145
C        60.38880781622998    0.03552275603201   -0.02659214515356
C        61.72382086578521    0.03574762764870   -0.02529151787004
C        62.94380445403179    0.03448023062317   -0.02448611638232
C        72.60118522578178    0.04031850779874   -0.02034469333237
C        73.82119329205723    0.04078660068462   -0.02033232529476
C        75.15610851572785    0.04138490878836   -0.02185862781075
C        76.38029252174017    0.04139755869940   -0.02065026166158
C        77.71520206759084    0.04176525466138   -0.02246655200562
C        78.93519560356827    0.04125705157570   -0.02199148754181
C        88.59204271394779    0.03609580815739   -0.02247120053486
C        89.81200856736746    0.03578157529092   -0.02323026199150
C        91.14693491776956    0.03757144964306   -0.02150751142748
C        92.37117015191545    0.03826655008423   -0.02196442795496
C        93.70609078615222    0.03788024729083   -0.02076036547432
C        94.92606484416844    0.03862276131863   -0.02189023919708
C       104.58362837146018    0.04901260507874   -0.02314108479463
C       105.80362937064113    0.04895361500396   -0.02380008027534
C       107.13868008598324    0.04877756206280   -0.02501267143452
C       108.36300128304899    0.04738284979870   -0.02479194086513
C       109.69805061056961    0.04427489353733   -0.02468847861836
C       110.91800893542617    0.03968037468913   -0.02316801024061
C       120.57846939955573   -0.01559073619362   -0.01342882254837
C       121.79838400782961   -0.02153001414156   -0.01161171406236
C       123.13407926798776   -0.02453455060117   -0.01156699121077
C       124.35824187834392   -0.02354237206567   -0.00620855201526
C       125.69410642354899   -0.01791503905075   -0.00583759053579
C       126.91389315381896   -0.01145655437736   -0.00703258472257
Zn       51.77994612030297    0.05849237262887   -0.01730743733922
C        49.27370915653757   -3.37219130241084    0.38132460406688
C        48.31349730021903   -2.42165704174512    0.27581168627596
C        48.99384110595685   -1.16688785512956    0.13069359980546
C        48.34577574475372    0.07183944870860   -0.00775915252908
C        49.00259326161223    1.30538306407024   -0.15036345055667
C        48.33111457702794    2.56527294797392   -0.29227813958961
C        49.29800935849789    3.50825892389172   -0.40432439501532
C        50.55525869006684    2.82125582654095   -0.33017567762870
N        50.34430713877860    1.48349621613844   -0.17564159528922
C        51.79197571400623    3.43873072961665   -0.40584872455773
C        53.02420257237497    2.81192200588226   -0.33790025882401
C        54.28648259777501    3.48891272126227   -0.41973512487220
C        55.24646707252965    2.53837637604212   -0.31263766849198
C        54.56571799240680    1.28394811335980   -0.16600608861211
N        53.22552841252052    1.47248275354376   -0.18408435421946
C        55.21345179431670    0.04543272575663   -0.02461163263130
C        54.55705547082818   -1.18827205003250    0.11830271000882
C        55.22889161446456   -2.44794461405864    0.26087074147311
C        54.26217884940111   -3.39129470047153    0.37096389504382
C        53.00473881998429   -2.70463724814999    0.29532002576505
N        53.21556114644189   -1.36662725790768    0.14187328026438
C        51.76806185241942   -3.32196613858391    0.36894099733807
C        50.53577514462163   -2.69485849708653    0.30056157517827
N        50.33426577289638   -1.35536319884031    0.14834509383037
H        49.15298342733195   -4.43138229978168    0.50243286472957
H        47.24750980055595   -2.54172870112937    0.29262198781711
H        47.26597950975382    2.69348126152828   -0.30313591380436
H        49.18479239255382    4.56824799992057   -0.52575054707244
H        51.79568713312951    4.51285694416651   -0.52948568328563
H        54.40753639425820    4.54789609696547   -0.54234635247739
H        56.31251309329055    2.65816562743198   -0.32949634030744
H        56.29406522955630   -2.57583690386002    0.27293551399837
H        54.37569342614791   -4.45130911019964    0.49188574539336
H        51.76407198972760   -4.39618586307633    0.49176898591893
Zn       67.77264593507367    0.03762518210103   -0.02144421433818
C        65.28023610819119   -3.40320784503463    0.38064024430170
C        64.31655009302520   -2.45686489641318    0.26935671748964
C        64.99242526458224   -1.19994940193636    0.12186426692544
C        64.33982304129641    0.03550190489983   -0.02383407066623
C        64.99103761571513    1.27183971469665   -0.16820329911196
C        64.31388415897926    2.52804740332239   -0.31576546486199
C        65.27660016325922    3.47553875632715   -0.42563095168364
C        66.53685716034936    2.79487292533901   -0.34458191428569
N        66.33178721710642    1.45632300784331   -0.18828684421146
C        67.77087485931000    3.41797796807107   -0.41602743677937
C        69.00553539848593    2.79654266459308   -0.34245950369252
C        70.26514546281980    3.47873042175087   -0.42134392337468
C        71.22878650406119    2.53230562388986   -0.31058199285215
C        70.55282963392513    1.27526797048660   -0.16436983776202
N        69.21195493233557    1.45815739865865   -0.18638040188427
C        71.20525003694307    0.03958083246399   -0.02021690485117
C        70.55412306412362   -1.19679326890723    0.12386988043681
C        71.23142221255766   -2.45304526178514    0.27063707071277
C        70.26879058062511   -3.40053688284850    0.38105797866089
C        69.00845728865700   -2.71980035452192    0.30123322388319
N        69.21344291972602   -1.38121090111971    0.14498026323136
C        67.77447401864792   -3.34268558526898    0.37391673379088
C        66.53979623264134   -2.72106632938627    0.30101236080690
N        66.33335333606348   -1.38282016628536    0.14394234728356
H        65.16339367395095   -4.46246178251231    0.50495226681609
H        63.25098469903725   -2.58108678377178    0.28369882582352
H        63.24820854132390    2.65104793155931   -0.33138213400071
H        65.15867660262076    4.53469349248594   -0.54972145674755
H        67.77026607061106    4.49189168122829   -0.54145652891330
H        70.38205017476579    4.53808159556084   -0.54473510204400
H        72.29435355779226    2.65654470995041   -0.32448586743749
H        72.29712265324656   -2.57605485174534    0.28533555360302
H        70.38681948509770   -4.45973376907677    0.50472838752118
H        67.77502099491973   -4.41658603858679    0.49944833471839
Zn       83.76360540049629    0.03889142000409   -0.02237564827526
C        81.26753890750560   -3.39832274458662    0.38835704885047
C        80.30493217701502   -2.45092957964540    0.27681705903820
C        80.98225286332932   -1.19520207912253    0.12581187742055
C        80.33112800690920    0.04071815186819   -0.02229773352974
C        80.98349883167630    1.27592940399278   -0.17056860844971
C        80.30750839535099    2.53236237146948   -0.32162043573723
C        81.27112919342443    3.47876329230072   -0.43286576048042
C        82.53073908009047    2.79713286166542   -0.34961313585783
N        82.32437803371093    1.45906324153160   -0.19084641845417
C        83.76537739015139    3.41904113953485   -0.41993240885160
C        84.99934865441533    2.79648155312991   -0.34386336146087
C        86.25967591390967    3.47752497924415   -0.42075641071236
C        87.22229408952477    2.53011747330088   -0.30938932399057
C        86.54500389837268    1.27368499541734   -0.16426826840505
N        85.20431343087060    1.45788385742673   -0.18773992583790
C        87.19610055026595    0.03714521540768   -0.02121879598813
C        86.54367716022628   -1.19874657433215    0.12102848606844
C        87.21967763457224   -2.45598660704142    0.26520207309100
C        86.25605823913459   -3.40234535086141    0.37677736354097
C        84.99645457975778   -2.71999527759453    0.29960125230763
N        85.20280370443150   -1.38160050216302    0.14356713808934
C        83.76182945826871   -3.34125247196857    0.37559649721170
C        82.52786622705962   -2.71804240412316    0.30504615368419
N        82.32293123195798   -1.37978221050560    0.14601131405511
H        81.14949536781420   -4.45714904133620    0.51508268181386
H        79.23924018045140   -2.57371292993399    0.29327355983801
H        79.24194141423806    2.65625902445411   -0.33817909619916
H        81.15421091709153    4.53774805922826   -0.55933485256936
H        83.76595350466252    4.49285480120775   -0.54619372670194
H        86.37770055273241    4.53684678959110   -0.54334257390201
H        88.28798643168682    2.65338656035007   -0.32184860687753
H        88.28524306112134   -2.58033947834444    0.27786800328179
H        86.37297151356417   -4.46176222256947    0.49953716582520
H        83.76125806952426   -4.41503933825169    0.50206714561892
Zn       99.75468244658752    0.04416286117807   -0.02233589038074
C        97.26392154442074   -3.39708399887446    0.38704612336781
C        96.29980331730435   -2.45135648524456    0.27457069309578
C        96.97512909714199   -1.19441229591810    0.12476738750698
C        96.32200496972446    0.04050687111603   -0.02251498409258
C        96.97248096138613    1.27694885145617   -0.16924880669068
C        96.29460990564586    2.53260817108904   -0.31850746978794
C        97.25680452120865    3.48034893260983   -0.43068976388388
C        98.51746347458707    2.80036372280054   -0.34960571853967
N        98.31308710964625    1.46199589970044   -0.19067487793403
C        99.75116325175532    3.42376176539830   -0.42286278269505
C       100.98616625448658    2.80293668295514   -0.34861609593804
C       102.24536585328946    3.48571800341242   -0.42837822542672
C       103.20955260780886    2.53991994043159   -0.31684883053322
C       102.53436564632635    1.28279507959853   -0.16818865983152
N       101.19333226789084    1.46493391693521   -0.19048202682924
C       103.18758907134452    0.04766706814276   -0.02263999986761
C       102.53693344863113   -1.18881124168297    0.12320620857351
C       103.21470364577729   -2.44471969104482    0.27068751746031
C       102.25244341429584   -3.39229142883487    0.38385616573195
C       100.99185704329538   -2.71209442105898    0.30392684234118
N       101.19626915023630   -1.37369659665290    0.14543327371545
C        99.75814638078650   -3.33540896284276    0.37873622375421
C        98.52317879386604   -2.71454288741264    0.30562820748853
N        98.31609162885502   -1.37661613540933    0.14653496558570
H        97.14754839680465   -4.45618319581184    0.51306906883484
H        95.23429696506878   -2.57601576902638    0.28944101595670
H        95.22885335159644    2.65509259449256   -0.33350593722459
H        97.13827957488655    4.53922779187997   -0.55659421224955
H        99.75009556597482    4.49747683545316   -0.54998312072053
H       102.36164807869629    4.54498594720746   -0.55309367889279
H       104.27504231423950    2.66472075059475   -0.33109148398457
H       104.28044800187017   -2.56742715082054    0.28445197545068
H       102.37087777353290   -4.45124067536653    0.50921319662028
H        99.75928018079881   -4.40907110407683    0.50629553796876
Zn      115.74761823410094    0.01166202725384   -0.02025315768442
C       113.23277755174429   -3.41357278053896    0.37401301173140
C       112.27508100743179   -2.46082826381863    0.26603704009312
C       112.95883943604103   -1.20789945560990    0.12045824981265
C       112.31406635539938    0.03194701112084   -0.02308289455685
C       112.97347787100385    1.26402646762634   -0.16583651983712
C       112.30474783563123    2.52493544524712   -0.31200746430665
C       113.27377991164509    3.46615235707721   -0.41983708460506
C       114.52953911387083    2.77706535743961   -0.33839117238239
N       114.31542753731786    1.43962722431988   -0.18455610746183
C       115.76771255066402    3.39206783457856   -0.40599854008892
C       116.99848288759347    2.76276045402322   -0.33081357070897
C       118.26219567613410    3.43788007074976   -0.40433560239253
C       119.22010810944747    2.48557683861272   -0.29414752796210
C       118.53673301130735    1.23188578327725   -0.15393420716778
N       117.19673696365736    1.42283245230662   -0.17834997424574
C       119.18182574427347   -0.00835321846071   -0.01592074049193
C       118.52208888207448   -1.24109885015959    0.11962448598005
C       119.19045637863363   -2.50278306140581    0.26049826274040
C       118.22123543743632   -3.44395200050438    0.36754631338045
C       116.96565625559836   -2.75408734766500    0.29147468050190
N       117.17988983672656   -1.41648321120790    0.14033347250274
C       115.72742061868206   -3.36894428924926    0.36393410601538
C       114.49669746359383   -2.73932108513674    0.29477625197446
N       114.29857940749427   -1.39935782926163    0.14134182380023
H       113.10916770983653   -4.47235000644390    0.49587293023166
H       111.20874774437884   -2.57828853838435    0.28103009633142
H       111.23988610571760    2.65494126431016   -0.32836084509818
H       113.16288282455808    4.52623081419719   -0.54260337017184
H       115.77431238370882    4.46625328859547   -0.52900965506694
H       118.38549398256050    4.49692738782611   -0.52414655546427
H       120.28639756001965    2.60371813777909   -0.30521620080742
H       120.25527241473318   -2.63330212151056    0.27419804091320
H       118.33183207290143   -4.50444910057782    0.48689303148072
H       115.72111994854110   -4.44321271450821    0.48623189452018
