111
 energy: -200.253360961282 gnorm: 0.000764065098 xtb: 6.4.1 (bd6e46d)
Cu       17.02250770030095   -0.00565036055237   -0.00410787178238
C        19.49200772999679   -3.20630897714829    1.32388440818758
C        20.46046892842549   -2.32953514015930    0.96794920140138
C        19.79488846593408   -1.16712132356260    0.45350216610569
C        20.46270898824996   -0.03845987678631   -0.04171040265873
C        19.80536073400171    1.09472931410807   -0.54145541382632
C        20.48116850832599    2.23254132166626   -1.09580164610855
C        19.52123935071748    3.11662330752622   -1.45699978471412
C        18.26083285606690    2.51597524313335   -1.12558018681102
N        18.46653589266261    1.28704368320648   -0.57900875296780
C        17.03564201037435    3.12446389519851   -1.33232950497666
C        15.80598789669205    2.56652794955401   -1.03198380896394
C        14.54579120061580    3.22455116267594   -1.24612186751267
C        13.58372568850674    2.36443564929411   -0.84180798171263
C        14.25471972750290    1.17815190043384   -0.38381805395058
N        15.59711867372451    1.33275287630464   -0.50697606919349
C        13.60696848447640    0.05189513240694    0.09303525760917
C        14.24211227237242   -1.10096784650687    0.52083020749578
C        13.55819118128698   -2.27152135411929    0.99978312637682
C        14.51164952095590   -3.17469485260014    1.32366567330671
C        15.77917312209492   -2.55551753483274    1.04615713441313
N        15.58318045312361   -1.30461699754967    0.55774587652915
C        17.00427683952685   -3.15668039069945    1.27340327476410
C        18.23627798531300   -2.57362749279829    1.03634804652567
N        18.45382463008751   -1.33667999787840    0.51307328033688
H        19.59856503907346   -4.18678712983870    1.74618668154375
H        21.52448684330152   -2.43500243978097    1.04961895878728
H        21.54503808114924    2.31627546794631   -1.20196055122215
H        19.63686944052750    4.08361666471108   -1.90702789641492
H        17.04087369529675    4.11558678897920   -1.76256025121922
H        14.43636382776812    4.21201994497821   -1.65111889732803
H        12.51899142540270    2.49743359626068   -0.84685500920175
H        12.52745908188549    0.07198247866811    0.12877958406529
H        12.49166322108991   -2.36671939904149    1.06989549324686
H        14.39167761738261   -4.16666993904169    1.71495567351809
H        16.99977789477136   -4.15778260708335    1.68012545680671
Cu       38.82971601672704    0.04994950172021   -0.00563059018977
C        36.33810799016302    3.16339337130196    1.48116626286749
C        35.37559612618575    2.30388963885368    1.07101788443231
C        36.04954027551749    1.17331386585682    0.49972747364415
C        35.38981628432175    0.06810595067832   -0.05561763462168
C        36.05408649945640   -1.03653917511027   -0.60671720329094
C        35.38545081461783   -2.15049186799499   -1.21590142208959
C        36.35100206399051   -3.01106772303732   -1.61689114049841
C        37.60762692379935   -2.41973966025264   -1.25498224788756
N        37.39395201954333   -1.21982364849210   -0.65037604223838
C        38.83687724744982   -3.00967762763439   -1.49008585656651
C        40.06284612447269   -2.45837648844684   -1.16324521328028
C        41.32754121621198   -3.09540931275770   -1.41239008949065
C        42.28421935401062   -2.24803454859464   -0.96937602885154
C        41.60534231714964   -1.09127645749645   -0.45102213422807
N        40.26384617460661   -1.25045729391471   -0.57840908630461
C        42.24532361665019    0.01350529955317    0.08296082956400
C        41.60239468000432    1.13485611731653    0.57754208622245
C        42.27841791987898    2.28006243675955    1.12430489675637
C        41.31882342682798    3.15483323472953    1.50291978321959
C        40.05535337749333    2.54462801415324    1.18922373815889
N        40.26008880323166    1.32599700435131    0.62819870456093
C        38.82640766575173    3.12545356088536    1.44592030444485
C        37.59825820847557    2.55197984171167    1.16858985904459
N        37.38945623019683    1.34466450605454    0.57716469913065
H        36.22453335658777    4.11916481472534    1.95505931747451
H        34.31058759212734    2.40102247907442    1.15044744992557
H        34.32207218184144   -2.23523536315842   -1.32693504901627
H        36.24153522755292   -3.95615420172909   -2.11280507112226
H        38.83822523234105   -3.97882498073770   -1.96799761760705
H        41.44362918992737   -4.06128243658882   -1.86524801332243
H        43.34993382016862   -2.37214813168780   -0.98380913339670
H        43.32509375344878    0.00091252016782    0.11336565277271
H        43.34424950021372    2.37901031143766    1.19895968558690
H        41.43202308359852    4.12212562844496    1.95334305026894
H        38.82419905641363    4.10161379118136    1.90918962191717
C        21.86504026226548   -0.04208848041828   -0.03915081482598
C        23.07815938558816   -0.03676295528143   -0.03296690191993
C        32.77446376935217    0.06049702533469   -0.05215795294425
C        33.98747248214892    0.06652257862882   -0.05968163148570
Cu       27.92642690857759    0.01017618906902   -0.01839371493111
C        25.47660251614297   -3.46515093405018   -0.16721813115923
C        24.50117015319892   -2.52582462454194   -0.16716369088786
C        25.15636624741184   -1.25225841585158   -0.08170031392956
C        24.48001016069413   -0.02528048195089   -0.02492377712372
C        25.13110923139530    1.21500010568587    0.04224413712237
C        24.44937916527019    2.47397402578712    0.13745620734796
C        25.40546907624955    3.43285465956587    0.15423552140033
C        26.66886632402153    2.75713703512057    0.07549409937414
N        26.46888331261602    1.41260516728195    0.01832947044535
C        27.89164060073279    3.40288992381830    0.04389917342036
C        29.12739866493617    2.78456009959681   -0.01772124249519
C        30.37627296953208    3.48886565359836   -0.07842127100607
C        31.35148802129515    2.54990131845201   -0.11051470839717
C        30.69622571909345    1.27435211714570   -0.06018869923825
N        29.35503863016141    1.44334961099610   -0.01639707358203
C        31.37266899932013    0.04635287105436   -0.04292780742477
C        30.72226269135347   -1.19556341656448   -0.01022551197285
C        31.40498025910584   -2.45650425889853    0.04412597059599
C        30.44894260466467   -3.41564448362503    0.03986711576310
C        29.18491300395760   -2.73835476752115   -0.01151280261845
N        29.38452229816973   -1.39259083420750   -0.03178619278464
C        27.96165254998167   -3.38256957666212   -0.05435908999090
C        26.72561169848017   -2.76274599050055   -0.09129752036188
N        26.49775099775368   -1.42217006205408   -0.04884494254982
H        25.37850971380864   -4.53229563032937   -0.21806251021448
H        23.43921866477009   -2.66047991629284   -0.23106153356923
H        23.38460194405546    2.58648688850744    0.19756223899840
H        25.28526744664967    4.49712201603876    0.21652003946666
H        27.88049885795819    4.48329417498187    0.06674452451880
H        30.47436835644379    4.55704600813446   -0.09759761951498
H        32.41326104680533    2.68627154708862   -0.17504093269240
H        32.47031191152419   -2.57022577783035    0.09286192354649
H        30.56973436755977   -4.48121398641852    0.07151347408554
H        27.97259792494400   -4.46321029724640   -0.06277970217453
