148
 energy: -268.084901520975 gnorm: 0.000699273867 xtb: 6.4.1 (bd6e46d)
Cu       25.53198731135275    0.01577773826920    0.00332042666155
C        28.02080258777916   -2.80310477379443    1.99540318876992
C        28.98365689584806   -2.02987197645906    1.44007602758312
C        28.30991645255165   -1.01273642042071    0.68496669426146
C        28.97008360377399   -0.02038503418425   -0.05267689530670
C        28.30674340819295    0.97668507160976   -0.78134346011258
C        28.97662000038403    1.97037897671467   -1.57039886272539
C        28.01217205646488    2.75396945898254   -2.10821135628725
C        26.75502277348877    2.23520537376879   -1.65014644487098
N        26.96728610766377    1.15330991187994   -0.85282740116897
C        25.52652104582643    2.77906170083276   -1.98024631684941
C        24.30046269685746    2.29293567137039   -1.56321499844757
C        23.03604908851485    2.87877977127725   -1.91683907461212
C        22.07923572567859    2.12161097195983   -1.33342112950974
C        22.75787060881671    1.07095017171112   -0.62426884296318
N        24.09924462525657    1.20374371850997   -0.77910951114226
C        22.11723617045976    0.07609632514608    0.09326274534333
C        22.75905080046078   -0.94555489645440    0.77106488641720
C        22.08169025038081   -1.97932546255428    1.50587807207536
C        23.04018012944647   -2.77929734842818    2.02616141839353
C        24.30426742592770   -2.23448117329680    1.61124676382668
N        24.10102120731876   -1.12865715222470    0.85124865988319
C        25.53251836541568   -2.76568995704580    1.96139003432309
C        26.76080966384600   -2.25141917609631    1.58622648093007
N        26.96992312499388   -1.16468506733251    0.79471995468852
H        28.13413635244687   -3.66280476530902    2.62703393284443
H        30.04874358781708   -2.11519789448081    1.53124376625666
H        30.03982536943396    2.03227352563182   -1.69680638285150
H        28.12246416709117    3.60237667455018   -2.75544178152727
H        25.52581667947744    3.65309903975547   -2.61536345989232
H        22.92039187091853    3.75179531043527   -2.52980173199651
H        21.01362790970877    2.24246946666696   -1.36799988356053
H        21.03759653609169    0.09645294409902    0.12357629011085
H        21.01583982362402   -2.06153378438179    1.59802577446959
H        22.92586484633276   -3.65593446218740    2.63422016631766
H        25.53415340892718   -3.64770695330722    2.58547839577977
Cu       58.24831920349071    0.03213549346107    0.00208145479333
C        55.76398873063158    2.90116064279571    1.92625326304906
C        54.79993946269211    2.09526194518695    1.42168727881881
C        55.47073521606496    1.05737609951487    0.69279883559719
C        54.80795703132397    0.03104208444946    0.00506295211659
C        55.47020714523792   -0.99706151880216   -0.68050486486227
C        54.79910967303801   -2.03818664359172   -1.40443579517957
C        55.76284810213045   -2.84617471718267   -1.90623023829445
C        57.02126078320669   -2.29238277417130   -1.49525124927577
N        56.81017120667919   -1.16833919762844   -0.75819675860039
C        58.24983190790338   -2.84170784609572   -1.81615840491556
C        59.47790214757502   -2.31356178733463   -1.46080085328518
C        60.74249412772201   -2.89849268471125   -1.81531853448569
C        61.70118544179876   -2.08880995125555   -1.31064678686489
C        61.02343655386422   -1.00820553098947   -0.64699160609250
N        59.68093129418227   -1.17441242659767   -0.75163140353129
C        61.66532515623913    0.03962832871433   -0.01046861003534
C        61.02364313257693    1.08369141462507    0.63239790402758
C        61.70154923402890    2.16593183383641    1.29321897463364
C        60.74311400907284    2.96907951561012    1.80869143091824
C        59.47849348028657    2.37904842753796    1.46275710110481
N        59.68124213687037    1.24304273551076    0.74856688421369
C        58.25081666205834    2.90120046504935    1.82825923236783
C        57.02213641006055    2.35027991149509    1.51056480377490
N        56.81064850544917    1.22894459422821    0.76949838680193
H        55.65253521660048    3.78364219297763    2.52599142808662
H        53.73614359388964    2.17004482286505    1.53423334014644
H        53.73527253067510   -2.11395631981352   -1.51551070502049
H        55.65116782792320   -3.73150793116139   -2.50174021347351
H        58.24873295066816   -3.75265048306852   -2.39727310916943
H        60.85702172128540   -3.80619805603989   -2.37595595201034
H        62.76746699737206   -2.19246378451495   -1.37079039631151
H        62.74557001030961    0.04231563037804   -0.01506790664975
H        62.76776878043026    2.27488250223698    1.34448255201817
H        60.85787066383102    3.87571378157458    2.37100452155298
H        58.25018880773249    3.80980366239131    2.41301162294647
C        30.37235199006931   -0.02232789823754   -0.05860806552187
C        31.58535510003291   -0.02596822081898   -0.06019577446292
C        41.28135918893844    0.04994584266400   -0.01863545399610
C        42.49481200740685    0.05182735854378   -0.02147559144449
C        52.19254860623975    0.03846979201659   -0.00206275561476
C        53.40572685356677    0.03305706665026    0.00328114155998
Cu       36.43328771188063    0.01134192134657   -0.03982779055396
C        33.97264095886173   -3.42245765484306    0.46968128215311
C        33.00014153170903   -2.49752158298633    0.28906631555010
C        33.65962017382046   -1.23333397014556    0.12937245665992
C        32.98709600594827   -0.01731093845144   -0.05662244505990
C        33.64151382499569    1.20965200550981   -0.23697969928133
C        32.96290169039298    2.46322903282335   -0.40057344915209
C        33.92175431418652    3.40398718374217   -0.57207717890662
C        35.18354136718456    2.72401007083146   -0.50546506394255
N        34.97992826032468    1.39561618085779   -0.29316243929237
C        36.40853160183062    3.34842654501534   -0.65510047902768
C        37.64277472452468    2.72919408235252   -0.57626067629346
C        38.89425488443086    3.40605455080768   -0.76118116137770
C        39.86694060109107    2.47952687898287   -0.58968170879814
C        39.20725762441130    1.24074736219012   -0.29239999062223
N        37.86621201267546    1.41541191266027   -0.30142501722026
C        39.88014307064354    0.04020481539077   -0.02238246805596
C        39.22444848346147   -1.17104314732743    0.24264483230701
C        39.90119640970239   -2.39841120215930    0.54870650445019
C        38.94231558931023   -3.34117992182422    0.70920399653153
C        37.68187066412246   -2.68540903658816    0.50958872928190
N        37.88638988853207   -1.36811342629613    0.23718716713229
C        36.45755470358721   -3.32559805870367    0.57552104215500
C        35.22372046408285   -2.72210924545905    0.41319821819274
N        35.00031122960124   -1.39742026897079    0.19737989354009
H        33.87120071513451   -4.47928497695418    0.62388756587991
H        31.93771299485029   -2.63873432652993    0.25086555580332
H        31.89807701518688    2.58716575913544   -0.37105600265920
H        33.80436858092640    4.45925885610602   -0.72563682586713
H        36.40061551550227    4.41125032997910   -0.85064971618044
H        38.99592568521013    4.44823253606518   -0.99459794670389
H        40.92975766834714    2.59990268350074   -0.66617539196293
H        40.96478162765010   -2.50086177377651    0.63892508977047
H        39.05896298700559   -4.38148752108645    0.94404422473832
H        36.46601571289574   -4.38832511452625    0.77167636947837
Cu       47.34317801812091    0.04839177724903   -0.01846506288136
C        44.85482901992518   -3.31560590162604   -0.78257731946838
C        43.89009513872767   -2.38061177340278   -0.61220962227592
C        44.55945702270549   -1.15132020568135   -0.29769939186765
C        43.89603187902279    0.05316154379423   -0.02090236297348
C        44.56148917950256    1.25664192754199    0.25396017109094
C        43.89535046454068    2.48930079363839    0.56186153698073
C        44.86263002359277    3.42242830392919    0.72834038014075
C        46.11751394063330    2.75540271869480    0.53057047781456
N        45.90142504933674    1.44091272577985    0.25399124133719
C        47.34775543068776    3.38406517600668    0.59829274798336
C        48.57633858920732    2.76934964306986    0.43811742556104
C        49.83329655576136    3.45929264709845    0.49282790934347
C        50.79806536657054    2.52511997986454    0.31862011751800
C        50.12831076789641    1.26556310568201    0.16550317895473
N        48.78888620168145    1.44182906883294    0.22872823556414
C        50.79085886623967    0.04170638332311   -0.00701044399527
C        50.12478392652986   -1.17924646021261   -0.18667782409680
C        50.79080350395104   -2.44071423124313   -0.33978638574743
C        49.82390464543484   -3.37026047937130   -0.52645761241825
C        48.56932006254529   -2.67578282369278   -0.47771513400039
N        48.78528376916633   -1.35005160327746   -0.26076369255069
C        47.33955122999971   -3.28548289291896   -0.64719485811946
C        46.11124469498748   -2.65333886032766   -0.57954351823154
N        45.89865972000043   -1.33949157758913   -0.29661747440372
H        44.74463911207114   -4.35461744620675   -1.02601688626584
H        42.82700092191001   -2.48935702304514   -0.70085964970402
H        42.83233392361933    2.60143576163858    0.64780437930498
H        44.75524976456055    4.46308233814991    0.96604221304245
H        47.34896266873614    4.44696037104544    0.79373995345965
H        49.94356101414720    4.51606197064598    0.64133409296917
H        51.86153331191080    2.65745000364432    0.27989774918028
H        51.85330092578147   -2.57759855549880   -0.29286797202814
H        49.93139353139230   -4.42666995239113   -0.67937382385501
H        47.33809282160379   -4.34724426305195   -0.84863862702454
