80
 energy: -134.954688041409 gnorm: 0.000463492474 xtb: 6.4.1 (bd6e46d)
C         5.38816904797319    3.38892938691690    0.97603119984664
C         4.45800454381821    2.47676511095734    0.63280148057666
C         5.19189261369064    1.28285415280633    0.25268676174794
C         4.56525490543428    0.09413229393946   -0.17035887980932
C         5.25129722950878   -1.06772955952423   -0.55954427694036
C         4.68659674918214   -2.28918213610663   -1.01502428804529
C         5.71789925551707   -3.14045861028444   -1.28929611420258
C         6.93437108278914   -2.45843866806860   -1.00434416033623
N         6.60008783843940   -1.21193764478234   -0.56944625539648
C         8.21757707002424   -2.96835601202314   -1.13589594294586
C         9.41401641391096   -2.32581711968143   -0.84921680628725
C        10.70992931817095   -2.96913976745927   -1.01274422318939
C        11.63014344530231   -2.06154017852428   -0.63779850253450
C        10.88957136579195   -0.87054209233434   -0.25098645732477
N         9.56130912289757   -1.06579340872770   -0.39046423913764
C        11.49931682755640    0.29521037996926    0.19525382123796
C        10.83850542582422    1.45563022583741    0.56753041915695
C        11.40410705205445    2.67999245248686    1.02550242546447
C        10.37742341311889    3.54322187944638    1.26979832269014
C         9.15797742522806    2.86885427795922    0.96893827788149
N         9.48855381511082    1.61856877865875    0.55138131144068
C         7.87540878882785    3.38415631186548    1.08163292898986
C         6.67781474551481    2.74098565765530    0.80526056074968
N         6.51772273101293    1.47059246479251    0.36428693902616
H         5.25185107287938    4.39829852583374    1.31382564876858
H         3.38899338273198    2.56718586251457    0.62415698930546
H         3.63522149522478   -2.47651959272741   -1.11598043236855
H         5.65271482653285   -4.14715981702425   -1.65374491205770
H         7.24802607577980   -0.48508781757505   -0.28829617731433
H         8.29073818622593   -3.98462521082581   -1.49789604778625
H        10.85253319741595   -3.97295428935851   -1.36478960953192
H        12.69937297748639   -2.15058404206247   -0.61259223724318
H        12.57806636446121    0.29897610979204    0.25499416862825
H        12.45444672034647    2.86142029263928    1.14629407569022
H        10.44367688514812    4.55322702762622    1.62546202174550
H         8.84308356446077    0.89289890929790    0.26364239127837
H         7.80079708455735    4.40506675391445    1.43032287872066
C         3.16885232144728    0.05972724533008   -0.20017825337603
C         1.94934891386658    0.02873909174143   -0.20523633286293
C         0.61302590351292   -0.00196462602919   -0.20353166550325
C        -0.61066074593951   -0.03422204038917   -0.18923445573554
C        -1.94697148343150   -0.06231538758990   -0.17386842096157
C        -3.16631856280851   -0.09162772079242   -0.15085759031149
C       -10.68207309978373    2.56491756832315   -1.92400157243974
C       -11.61212343892924    1.77091285268712   -1.36214269517074
C       -10.88177672481936    0.73558762178651   -0.64711164897921
C       -11.50320978012046   -0.27934196759620    0.06961562919840
C       -10.85268865835773   -1.28894905707511    0.76188021684584
C       -11.43113191093837   -2.35395265199279    1.51024886818930
C       -10.41166523278543   -3.10847063446736    2.01045952704769
C        -9.18394981102224   -2.52432822552485    1.58153445774181
N        -9.50255856798426   -1.43356843646165    0.83615829603230
C        -7.90499331358728   -2.97956125307977    1.86473766424164
C        -6.70031014403292   -2.42320982546743    1.46017174672817
C        -5.41555677994354   -2.99637300071594    1.82500975464257
C        -4.47686686644231   -2.20277962545581    1.27346424218008
C        -5.20064744019501   -1.15396705375979    0.57726119237559
N        -6.52886803624870   -1.31244898950894    0.70471768950992
C        -4.56312826324228   -0.11367588255328   -0.12678094475827
C        -5.23819097998933    0.91027476391830   -0.81094858420551
C        -4.66059958402507    1.98260709794768   -1.54230435194516
C        -5.68349008932785    2.73004276032011   -2.05068021091046
C        -6.90762724576629    2.13092354851785   -1.64007083819156
N        -6.58610737249917    1.03798464580790   -0.89386095875176
C        -8.18663336370603    2.57414927621557   -1.94264389513366
C        -9.39061629411912    2.00849348907300   -1.54657222077181
N        -9.55000400367124    0.90905142952531   -0.78125087844170
H       -10.81539015764358    3.43909293074875   -2.53223713782313
H       -12.68196088703027    1.84490529492521   -1.40451957592896
H       -12.58346351368920   -0.28296391800497    0.08836345168771
H       -12.48469612406999   -2.50903059731124    1.63944511680318
H       -10.48781814137957   -3.98803635357012    2.62003092199697
H        -8.84882430157237   -0.80320648497398    0.38752751931722
H        -7.83993024614263   -3.87154045998789    2.47263688013365
H        -5.28793969354569   -3.88033277700470    2.41986976861463
H        -3.40798950578074   -2.28683300218069    1.31295757007389
H        -3.60669506101256    2.14718699473666   -1.65583940209226
H        -5.60787926841974    3.61393730585934   -2.65366982678222
H        -7.24255246789526    0.40031805395872   -0.45844836811385
H        -8.24980107951947    3.46274509101544   -2.55551274464792
