365
 energy: -644.964570827127 gnorm: 0.000847394937 xtb: 6.4.1 (bd6e46d)
Zn       47.65332915859972    0.00207914786574   -0.00930118269256
C        50.18124398949754   -3.43667807728090    0.04288516131244
C        51.13608756112685   -2.47539307920227    0.03093864014757
C        50.44888298319240   -1.21564106919093    0.01099722112627
C        51.08962500677824    0.03430770028500   -0.00685125315511
C        50.42570291347360    1.27212710998268   -0.01973107804781
C        51.08918150598416    2.54463984249943   -0.03055675313782
C        50.11649046218604    3.48792788353402   -0.03705413296603
C        48.86252185751133    2.78931302557275   -0.03091157758303
N        49.08252748270850    1.44434358936426   -0.02027740956369
C        47.62232620468377    3.40546782871623   -0.03661380258878
C        46.39442675282795    2.76486275404972   -0.03530118939517
C        45.12216952427288    3.43470311250814   -0.04539104220794
C        44.17380457533021    2.46920742310162   -0.04385177149253
C        44.86596587963530    1.20858293174060   -0.03200242075500
N        46.20818818883406    1.41886508894530   -0.02686894453900
C        44.24548875751598   -0.03005916816272   -0.02646770634751
C        44.88904098441644   -1.25679599509761   -0.01174357657478
C        44.22064418710164   -2.53021272160274   -0.00318621421075
C        45.18692827366383   -3.47761249043616    0.01432036024404
C        46.44637436435506   -2.78391501194698    0.01571716943739
N        46.23494501272560   -1.44172254279946   -0.00077061270781
C        47.68605594231030   -3.40118138943505    0.03157757129827
C        48.91442626408914   -2.76177588834320    0.02963338896430
N        49.10918150931393   -1.41298844068591    0.01140000615973
H        50.30813119703213   -4.50197312199940    0.05885141110569
H        52.20276641989980   -2.59096955017822    0.03512587905069
H        52.15352084571076    2.68017084846924   -0.03237817852469
H        50.22339809668679    4.55550482299277   -0.04539969728991
H        47.61308148343074    4.48658871698352   -0.04429471095951
H        44.99174751302440    4.49988320715249   -0.05292440833453
H        43.10647053075909    2.58065289347124   -0.04980592811110
H        43.16453895990121   -0.04023085554540   -0.03312163587709
H        43.15560715691203   -2.66178304987087   -0.00961515144273
H        45.07650775839077   -4.54502519654470    0.02510192823506
H        47.69715335661871   -4.48222294298833    0.04544059217664
Zn      175.70513342723433    0.03600764108594   -0.01251825056570
C       173.18711791266810    3.43209073740780    0.57415697758938
C       172.22948309321433    2.48744249211600    0.41134531597949
C       172.91299955503126    1.24386668994953    0.19681953730701
C       172.26860868305945    0.01337349968462   -0.01269324741121
C       172.92897684006289   -1.20865245820241   -0.22131495258112
C       172.26192040059843   -2.46114420714947   -0.43558579287231
C       173.23195152548678   -3.39333476874153   -0.59685426974196
C       174.48789711933642   -2.70792819906975   -0.48113030451421
N       174.27171023430583   -1.38178784058107   -0.25306797600528
C       175.72630668887635   -3.31843762772415   -0.58806789282413
C       176.95609291624828   -2.69029174057376   -0.48252105888225
C       178.22640970680004   -3.35381422292739   -0.59872103240120
C       179.17759959819620   -2.40463144323412   -0.43792262448438
C       178.48911789593313   -1.16031623905701   -0.22322704867888
N       177.14627496151800   -1.36411417678636   -0.25550569342574
C       179.11319098391971    0.05888455571441   -0.01508099233156
C       178.47313836356241    1.26949307195524    0.19470552220918
C       179.14519841567258    2.52271625437092    0.40961977546268
C       178.18160720900349    3.45885557705856    0.57304406399018
C       176.92014377159890    2.77849387089374    0.45790174655435
N       177.12773762309607    1.45520056317389    0.22931052263300
C       175.68221611313368    3.39014800216884    0.56507329961101
C       174.45197630765492    2.76339563602651    0.45803015957092
N       174.25330085063459    1.43467546411319    0.22893319108696
H       173.06331914934538    4.48229276413666    0.75572096493052
H       171.16314829845007    2.60433703249886    0.43230814309052
H       171.19719736443287   -2.59198533881919   -0.45673786025481
H       173.12206345430334   -4.44526222775300   -0.77740240185184
H       175.73236473991474   -4.38402479493326   -0.77098643861591
H       178.35374975612214   -4.40405004562334   -0.77890687324220
H       180.24461677231886   -2.51724019422497   -0.45928820942185
H       180.19418537815582    0.06618709452913   -0.01612347706967
H       180.21063810058448    2.64962723731745    0.42944787066088
H       178.29507375815817    4.51048924158284    0.75434223477262
H       175.67423887280455    4.45555245862079    0.74896988187221
C        52.48721809789517    0.04663755234669   -0.00970064858176
C        53.70718994314934    0.05726997743683   -0.01959441836858
C        55.04333085816785    0.06584919444013   -0.02830609626161
C        56.26770427859160    0.07063176950203   -0.03419326694417
C        57.60372768239532    0.07382074445430   -0.03714534549276
C        58.82390971908730    0.07468832405912   -0.03864577671950
C        68.49284083726359    0.04553873520055    0.01547363362466
C        69.71306952043429    0.04756375368359    0.01427538132842
C        71.04875531204073    0.04631593326872    0.00895417034958
C        72.27344215887729    0.04798450171460   -0.00226184911678
C        73.60915064139054    0.04661233370367   -0.01632372354070
C        74.82935177391747    0.04316393139390   -0.02923160357975
C        84.49835610743963    0.01512563877970   -0.03647383976790
C        85.71858295212525    0.01619575723463   -0.02206839510470
C        87.05433350285200    0.02140797657308   -0.00688708458008
C        88.27898779779593    0.02354466294623    0.00326256788696
C        89.61471635925395    0.02897475413178    0.01442133052658
C        90.83499268972119    0.03422307540861    0.01966901524159
C       100.50489273044646    0.05528482425426   -0.05227393675941
C       101.72522174517340    0.05599969956146   -0.05454671527006
C       103.06108814317921    0.05811040528637   -0.05390088109073
C       104.28576185259942    0.05829975367196   -0.04967239346777
C       105.62155160524912    0.05897943611609   -0.03834445082558
C       106.84181899802977    0.05699464058349   -0.02669863884508
C       116.51243771965129    0.04309846080054    0.00683257478829
C       117.73270764490529    0.04382456372123   -0.00799107288389
C       119.06852238481075    0.04484230611923   -0.02389815945711
C       120.29310663167617    0.04914993637347   -0.04049015595256
C       121.62893756672416    0.04888169108836   -0.05267368228288
C       122.84926991126825    0.04912897814925   -0.06148478781995
C       132.51966148406109    0.01887515169629    0.00341411649794
C       133.73996979043662    0.02041238063714    0.00569264899164
C       135.07581505127592    0.02311992377819    0.00551525040603
C       136.30049840254262    0.03057011576307    0.00251574453638
C       137.63633838939646    0.03687865705425   -0.00331480749123
C       138.85663910718279    0.04282259651958   -0.00987787525682
C       148.52679923088411    0.05061433888998   -0.04214697918950
C       149.74714582751346    0.04756922421774   -0.03852433038113
C       151.08298055708855    0.04411723748702   -0.03449475965723
C       152.30759132141787    0.03795314775964   -0.03023199688111
C       153.64342062626298    0.03376851419360   -0.02544964004466
C       154.86372319044486    0.02791613324436   -0.02294886933315
C       164.53378376775427   -0.00536232724796   -0.02048587898822
C       165.75393214701313   -0.00625637081090   -0.01798497956064
C       167.09011232358577   -0.00661789762087   -0.01761227302753
C       168.31450459862799   -0.00400055354103   -0.01687082979858
C       169.65082680753264    0.00007541406670   -0.01607319191943
C       170.87080231418395    0.00527673868889   -0.01451365711757
Zn       63.65851674072056    0.06023445365882   -0.01287172404363
C        61.15142533555056   -3.37404704020672    0.34167173430957
C        60.19060975160066   -2.42458072428572    0.23199343444392
C        60.86995527310867   -1.16770718835347    0.10123328028793
C        60.22087523954434    0.07087703464996   -0.03572460256523
C        60.87918760401175    1.30494400879495   -0.16810905983565
C        60.20941270814956    2.56542385692898   -0.31259962804914
C        61.17746040645837    3.50872417947551   -0.41152637814914
C        62.43394681288106    2.82142777950828   -0.32661655090655
N        62.22129938749907    1.48314370914617   -0.17962589902263
C        63.67136264520867    3.43955600873167   -0.38537431630850
C        64.90388101911722    2.81433010007796   -0.30647842227253
C        66.16563000261557    3.49418065933840   -0.37157817869964
C        67.12641103779663    2.54487843502465   -0.26049022449502
C        66.44702761258854    1.28819876865517   -0.12765610792438
N        65.10644226176873    1.47453094757725   -0.15759839031009
C        67.09607019461703    0.04984795303571    0.01229543057595
C        66.43769046071949   -1.18418984690317    0.14553557824014
C        67.10751549191995   -2.44458993836155    0.29092753619412
C        66.13952955915710   -3.38810275336611    0.38796918864986
C        64.88298793548827   -2.70104128186990    0.30125755640575
N        65.09571108787398   -1.36254011162222    0.15506075355737
C        63.64572833260993   -3.31930453524842    0.35766882977862
C        62.41309934550016   -2.69403153813520    0.27797806495488
N        62.21064368035240   -1.35416060719637    0.13083125131013
H        61.03122833904813   -4.43414281810088    0.45517546736095
H        59.12471456026756   -2.54665569987839    0.23710044191164
H        59.14443659106971    2.69374790913383   -0.33402676019795
H        61.06542671527145    4.56910827612766   -0.53057556461321
H        63.67543068824283    4.51426717269292   -0.50412045827077
H        66.28584107657564    4.55410188190042   -0.48671841430246
H        68.19231055109522    2.66693827983785   -0.26584800811427
H        68.17248455751974   -2.57275990604416    0.31394063216425
H        66.25158645558433   -4.44850510767539    0.50685262274061
H        63.64152056203058   -4.39412125182146    0.47544913158472
Zn       79.66374765805161    0.02611265244935   -0.06032601051706
C        77.15927352679233   -3.40438952249650    0.34284010028982
C        76.19777975112194   -2.45460992904207    0.24217642183166
C        76.87627015306485   -1.19901117462203    0.09587731638545
C        76.22605678395684    0.03896294900774   -0.04162273420140
C        76.88329505601618    1.27153950569481   -0.19335961241067
C        76.21256878468657    2.53112515271779   -0.34154029684899
C        77.17992320409938    3.47256640756747   -0.46266956674482
C        78.43693187868739    2.78510634092756   -0.38709912564069
N        78.22518083069626    1.44850491659575   -0.22384343416734
C        79.67398398912714    3.40149379233775   -0.46680266156721
C        80.90699722907402    2.77656988494287   -0.39202263214457
C        82.16821985036771    3.45570998485682   -0.47239872748904
C        83.12976717276523    2.50813669690801   -0.35335866966233
C        82.45137709942171    1.25302679124878   -0.20211869216460
N        81.11058624623863    1.43863284462122   -0.22870397979424
C        83.10162918179083    0.01659782516560   -0.05074837109431
C        82.44425205712317   -1.21742166977477    0.08783575134792
C        83.11491993448219   -2.47750232844165    0.23191287110460
C        82.14752765776809   -3.42104367232436    0.33463354987524
C        80.89051846473195   -2.73409415503394    0.25441241577217
N        81.10234155143458   -1.39597601567395    0.10377905675656
C        79.65353903149220   -3.35158840339525    0.32498445897975
C        78.42048098427287   -2.72573373746894    0.25864450551617
N        78.21702739937612   -1.38628400085896    0.10829262266193
H        77.03979806219601   -4.46381406362865    0.46311628799247
H        75.13195165237013   -2.57572362367491    0.26267820185949
H        75.14750775415793    2.66025091099355   -0.35012034291247
H        77.06706400628528    4.53182889378756   -0.59058648998737
H        79.67751439982150    4.47482873492753   -0.59745588072633
H        82.28756857537523    4.51407011842349   -0.60182903259454
H        84.19559645709465    2.63030066895633   -0.36558439556818
H        84.17998998108207   -2.60562392077411    0.24928574553942
H        82.26029468437056   -4.48132265077115    0.45390721865467
H        79.65001327242221   -4.42602709303220    0.44622315355023
Zn       95.66994830833146    0.04704588875384   -0.00572471716872
C        93.18661167392767   -3.39583637842193    0.42401011203667
C        92.21917399812571   -2.45281058108701    0.31715251651713
C        92.88972364526602   -1.19397734399034    0.16216729507644
C        92.23179347724653    0.03934641335938    0.01949729989961
C        92.88167614748431    1.27661700514814   -0.12599880657202
C        92.20344846206986    2.53332705619925   -0.26411296879883
C        93.16512273676052    3.48130202389954   -0.37923842385270
C        94.42623745659908    2.80047821774065   -0.31192057719869
N        94.22248388880382    1.46165555795379   -0.15678091423040
C        95.65950929784061    3.42371976068353   -0.39666150977710
C        96.89633068977531    2.80430781885925   -0.34008022085043
C        98.15320175299755    3.48963334183864   -0.43508204604158
C        99.12064696368400    2.54562770228518   -0.33701128808160
C        98.45024804054279    1.28674096683235   -0.18181944157222
N        97.10829211572492    1.46643867629381   -0.18734585703298
C        99.10807897432045    0.05294207293908   -0.04264697014517
C        98.45798178466082   -1.18340566873302    0.10989361096614
C        99.13622643451168   -2.43966272898858    0.25205143592999
C        98.17462910944445   -3.38657746221390    0.37594715539787
C        96.91354994524237   -2.70574951673253    0.30847910709616
N        97.11724631727611   -1.36773302690187    0.14619917272931
C        95.68038820955924   -3.32872489063621    0.39594786729736
C        94.44352988017769   -2.71007255369825    0.33307609219518
N        94.23165684228532   -1.37283205694531    0.17499474235645
H        93.07392969643334   -4.45513809517416    0.55172516238090
H        91.15413584424095   -2.58038262243923    0.33957060315748
H        91.13764052908350    2.65633260142475   -0.26980653790003
H        93.04582401038353    4.54082899695829   -0.49890401506503
H        95.65650521292864    4.49791029119805   -0.52012382491017
H        98.26586787888729    4.54928947320411   -0.55983194980950
H       100.18564330352974    2.67258932084768   -0.36502015465879
H       100.20198992574397   -2.56311312092163    0.25474310124781
H        98.29388641313186   -4.44545216468185    0.50121248397178
H        95.68346920025925   -4.40230204568757    0.52461704808003
Zn      111.67709080783733    0.05258075386086    0.01321615182110
C       109.17606157791761   -3.38205845969708    0.40540326009239
C       108.21342118433810   -2.43606044080746    0.28248841650351
C       108.89030501859349   -1.17932108963181    0.13825082410441
C       108.23866446315935    0.05630914640211   -0.01354450961476
C       108.89502721815377    1.29111243241606   -0.15060744174560
C       108.22330378079290    2.55001537614732   -0.30001306973951
C       109.18984758989261    3.49471562393498   -0.40026782405930
C       110.44744537449294    2.80973623632471   -0.31264878935104
N       110.23681318791793    1.47158245052990   -0.16089359865891
C       111.68380630538883    3.42926045861092   -0.37698398536010
C       112.91765335759975    2.80602138739658   -0.30157173020436
C       114.17803338457951    3.48707330659948   -0.37881874913848
C       115.14075715140218    2.53935786232799   -0.27078750181858
C       114.46392052784998    1.28260814176643   -0.12646392083621
N       113.12286477237456    1.46725820863932   -0.14755112181719
C       115.11559586746516    0.04595671406330    0.01677713404737
C       114.45917467821631   -1.18718077244631    0.16773685384345
C       115.13089563116252   -2.44531296328394    0.32345004236400
C       114.16430733201108   -3.38826941058171    0.43856165017932
C       112.90668340416826   -2.70326817711885    0.35137579874331
N       113.11735824435445   -1.36645738364637    0.18826223258910
C       111.67029297422168   -3.32231657507054    0.41987155048118
C       110.43645685704159   -2.70024078858514    0.33492516291217
N       110.23129340697845   -1.36249983648825    0.17221607005167
H       109.05787808577459   -4.44095778341061    0.53144507494331
H       107.14775760736271   -2.56032930446253    0.28750509027992
H       107.15813912409135    2.67658812707010   -0.32263793650521
H       109.07613074566636    4.55458002504650   -0.52231362204116
H       111.68599876807804    4.50348717324353   -0.50017885375426
H       114.29615171559543    4.54656101698251   -0.49985667950157
H       116.20643682757465    2.66264014096506   -0.28467142372382
H       116.19608939435197   -2.57243715560625    0.34109434712085
H       114.27798727312739   -4.44706989779301    0.56953302705132
H       111.66809141057165   -4.39570930142772    0.55016637144367
Zn      127.68451989892743    0.03281137003807   -0.03740987054168
C       125.17599287084946   -3.39773898440968    0.33917608507683
C       124.21546702330036   -2.44881522809585    0.22261797012937
C       124.89514325967677   -1.19298818666124    0.08368394287234
C       124.24613985913525    0.04479866188095   -0.06211279474241
C       124.90522172392598    1.27749517459985   -0.20454844661926
C       124.23638250633967    2.53734660039495   -0.35872734908218
C       125.20510910843682    3.47921468230020   -0.46442396535243
C       126.46112600133843    2.79173783575870   -0.37374667685343
N       126.24741806481568    1.45466406526424   -0.21690504684057
C       127.69892290509468    3.40858876289244   -0.43600045219653
C       128.93123341545265    2.78357767523857   -0.35060805618817
C       130.19314850437380    3.46274915578400   -0.41894630388054
C       131.15361097137253    2.51427441460224   -0.29828278149705
C       130.47387381146194    1.25879586701449   -0.15659838471916
N       129.13331255496135    1.44502987071129   -0.19068712749482
C       131.12284317005498    0.02168099996249   -0.00513217788395
C       130.46383373691424   -1.21122115537061    0.13579262021057
C       131.13267376972337   -2.47080124451284    0.29217392958831
C       130.16399295782136   -3.41316877865146    0.39376153520740
C       128.90799990507281   -2.72618151386921    0.29908427358400
N       129.12168051041579   -1.38896962170815    0.14348034600777
C       127.67019022905644   -3.34341728768160    0.35759593189158
C       126.43789715049020   -2.71844245835656    0.27176889219581
N       126.23573786378316   -1.37949911710124    0.11515981438780
H       125.05546893868498   -4.45701211562591    0.45970278896171
H       123.14954228034318   -2.57066973056130    0.22774430954311
H       123.17150474729989    2.66631352825719   -0.38151663214412
H       125.09386065984151    4.53876130185862   -0.59137221405786
H       127.70376362509840    4.48237444092078   -0.56286324640688
H       130.31374697803039    4.52166790330105   -0.54249159542072
H       132.21953449571180    2.63616050195907   -0.30270951531638
H       132.19751807122020   -2.59931257039101    0.31868317039194
H       130.27527813887355   -4.47270684130408    0.52074731117640
H       127.66533494669432   -4.41735888265570    0.48315106414575
Zn      143.69174333517552    0.04679347690340   -0.03503183864958
C       141.20166925735390   -3.39355719993271    0.37696907414891
C       140.23603213166464   -2.44843235185528    0.27247474731815
C       140.90898079534259   -1.19019168265515    0.12289715601557
C       140.25346805300680    0.04467666423100   -0.01808903487392
C       140.90586033869923    1.28006883068716   -0.16795367517131
C       140.23002752354685    2.53710064141275   -0.31451933278963
C       141.19350638084686    3.48287870633277   -0.43245423132826
C       142.45337498200993    2.80058708901191   -0.35710825042556
N       142.24705751520708    1.46277172952041   -0.19646621862772
C       143.68772269784068    3.42242900816393   -0.43589839002337
C       144.92360525915450    2.80253992625635   -0.36538341867903
C       146.18188946675926    3.48676664506818   -0.44874285955397
C       147.14755386001545    2.54234059082967   -0.33788992518244
C       146.47459668219204    1.28423801229875   -0.18748397934171
N       145.13295818723640    1.46496911761479   -0.20687076839150
C       147.12996188139385    0.04984374965395   -0.04241254825157
C       146.47746177627090   -1.18611528788200    0.10260003557309
C       147.15332213759234   -2.44329008711009    0.24767834595414
C       146.18982915341181   -3.38981126267033    0.35935076636196
C       144.93001993184839   -2.70768861459129    0.28241074482892
N       145.13626558134862   -1.36936678188159    0.12625901482256
C       143.69566118510130   -3.32988438185664    0.35837410615510
C       142.45991281905947   -2.70955946032191    0.29133062030541
N       142.25054789268128   -1.37144565246093    0.13708964922004
H       141.08688715033509   -4.45314528087168    0.50034634043770
H       139.17075537223982   -2.57430571919382    0.29257978181784
H       139.16443281167369    2.66170361922675   -0.32406567777136
H       141.07633008834659    4.54189821706096   -0.55847672906840
H       143.68644349716664    4.49610366101263   -0.56382828758911
H       146.29672199243555    4.54604760084459   -0.57472375930804
H       148.21287405402677    2.66853804931274   -0.35452739883708
H       148.21890227665710   -2.56757033995680    0.26026078076208
H       146.30702243338712   -4.44917180912710    0.48244238567061
H       143.69694545416684   -4.40392792292442    0.48311028227539
Zn      159.69865162801821    0.01114808795823   -0.01855419976035
C       157.19244139310877   -3.42413229870751    0.33404094627295
C       156.23123221231995   -2.47366238536218    0.23761479637931
C       156.91008654853275   -1.21637475945587    0.10780858231467
C       156.26056499807765    0.02300956786561   -0.01998396822755
C       156.91881064469416    1.25797011684507   -0.14587106702476
C       156.24874998658515    2.52005341269140   -0.27470692106281
C       157.21656693933261    3.46398846683405   -0.36915752194415
C       158.47329256120182    2.77549262262780   -0.29783057287730
N       158.26081350232030    1.43579956093452   -0.16253372076185
C       159.71042237721437    3.39363431953513   -0.35824378529222
C       160.94337214774700    2.76721330462988   -0.29375708339777
C       162.20481700666915    3.44739303505149   -0.36054213283502
C       163.16605828685829    2.49680694106797   -0.26524309531411
C       162.48722101976708    1.23901681233683   -0.14076058233024
N       161.14636863703865    1.42607516581255   -0.15979417560559
C       163.13666037382382   -0.00100524728979   -0.02022509256016
C       162.47855150018057   -1.23632467137007    0.10108366386370
C       163.14862304547472   -2.49882189818017    0.22539751314972
C       162.18079992814478   -3.44255140897256    0.32230093209863
C       160.92409319856711   -2.75349682353234    0.25678210361139
N       161.13642169853753   -1.41389391611278    0.12194973736628
C       159.68679847838655   -3.37116480255935    0.32300942530950
C       158.45396679307069   -2.74445547315854    0.26257293952253
N       158.25081858419125   -1.40346557898300    0.12584819186285
H       157.07272140919952   -4.48475632605714    0.44305388965329
H       155.16533772420831   -2.59523671494455    0.25140026960073
H       155.18373580010305    2.64902112138787   -0.28898412091464
H       157.10425664848759    4.52555571522016   -0.47686035509457
H       159.71422342693307    4.46946849232496   -0.46640342763215
H       162.32457080440724    4.50834419563137   -0.46627373975514
H       164.23194079170310    2.61860707729338   -0.27694248174843
H       164.21365327107745   -2.62809473051919    0.23568789580859
H       162.29315404704104   -4.50429200697253    0.42824222514857
H       159.68314279691299   -4.44690958615337    0.43208096530042
