193
 energy: -349.059562740344 gnorm: 0.000248271270 xtb: 6.4.1 (bd6e46d)
Fe       28.59981691000471    0.00409323741835   -0.01236100995672
C        31.10139477845460   -3.38345349030503    0.01290769212372
C        32.09252627202626   -2.46138853286815    0.01359465839668
C        31.45053041086374   -1.18269585606458    0.00478876097898
C        32.12531117281755    0.04182477393602    0.00028933263403
C        31.42472036981359    1.25162266476538   -0.00630150098999
C        32.03923732207390    2.54375658144037   -0.00717440626010
C        31.02859811416119    3.44439689682750   -0.00931255197516
C        29.80432403114161    2.69647985722589   -0.01055017404918
N        30.06783766613544    1.35182724055408   -0.00882369342693
C        28.56209075677780    3.30016052397630   -0.01370527540405
C        27.33471824426380    2.66734148806620   -0.01875142490038
C        26.09081287579188    3.38642420677475   -0.02473708744169
C        25.10397375106897    2.46244147204672   -0.03168014288299
C        25.74791230115574    1.18089085565870   -0.02935561308096
N        27.10553470293016    1.31928800952735   -0.02130598827036
C        25.09104530673920   -0.03346564486144   -0.03459878027952
C        25.77369659078677   -1.23352077873919   -0.02965019371651
C        25.15731812886505   -2.52854716427373   -0.03279898494205
C        26.16367433582493   -3.43121259004249   -0.02319712866773
C        27.39187505503738   -2.68567445155839   -0.01461967345305
N        27.13394879016254   -1.34284739961470   -0.01912335072873
C        28.63246001633998   -3.29207936002182   -0.00324690857258
C        29.86144182044999   -2.66192534028105    0.00322127625130
N        30.09613478135894   -1.31191798984999   -0.00106445081048
H        31.18242616727706   -4.45328341716627    0.01797246511626
H        33.15487581354628   -2.60965984792915    0.01916592098559
H        33.09818444004251    2.71472148422676   -0.00557284496349
H        31.08670472529661    4.51572926502941   -0.01013397108834
H        28.55053659560599    4.38097061702833   -0.01343234633549
H        26.00844207789096    4.45637994955134   -0.02395232075723
H        24.04147614417892    2.61107644586688   -0.03767035001393
H        24.01217589533555   -0.04499021170782   -0.04204903258314
H        24.09826944592105   -2.69990604554261   -0.04103630755034
H        26.10420288910176   -4.50268113305520   -0.02201236471963
H        28.64401892125447   -4.37288256456529    0.00006996313689
Fe       83.09661187099152    0.03915434209142   -0.01127494095269
C        80.60423740418494    3.38140119819791    0.58162293690553
C        79.61059182447971    2.47620796831333    0.42105573324638
C        80.24913475147278    1.21491218894207    0.20022186241442
C        79.57121051156487    0.00941531469999   -0.00396738034128
C        80.26841900334482   -1.18474177328438   -0.20926177491990
C        79.65032052254628   -2.45697667165263   -0.42536352513982
C        80.65843304164417   -3.34572064355233   -0.58776026352407
C        81.88475790602482   -2.61052877370989   -0.46989530635860
N        81.62502006321257   -1.28558151748835   -0.23631596236926
C        83.12524518245144   -3.20616793015215   -0.58811863924037
C        84.35429127732800   -2.58423340839806   -0.49033609314235
C        85.59615560150058   -3.29313992219422   -0.63053297505955
C        86.58553953737412   -2.38509211523182   -0.47493572490156
C        85.94519301371101   -1.12345023142946   -0.23985906960839
N        84.58720973445358   -1.25788741580248   -0.25305316636542
C        86.60542652122331    0.06987466446791   -0.02486190261094
C        85.92612075148699    1.25130911335224    0.19631076691339
C        86.54612177874918    2.52366220482472    0.42817823341202
C        85.54225298071243    3.41387081779421    0.59378066287518
C        84.31193638721899    2.68350457776653    0.46229158233310
N        84.56614463157155    1.36184824023969    0.22075892497818
C        83.07299563886170    3.28381115686640    0.56981769277521
C        81.84226772466012    2.66721597199403    0.45732473199858
N        81.60391309771764    1.33848524640584    0.22239098487463
H        80.52608821284923    4.43521926592296    0.76731412749974
H        78.54864411070284    2.62520457519064    0.44693827772010
H        78.59090573647474   -2.62377784144992   -0.44691439334129
H        80.59731630976670   -4.40108395355294   -0.77107572429279
H        83.13382428579324   -4.27032102176784   -0.77729120207561
H        85.67553857061567   -4.34601747992618   -0.82220974291352
H        87.64759272249599   -2.53254628923435   -0.51139142782017
H        87.68433245823061    0.07938337731379   -0.02937469333406
H        87.60568395584296    2.68973287365921    0.45610191454612
H        85.60469873487837    4.46764950785835    0.78677482885255
H        83.06438958904739    4.34758723437084    0.76109446839418
C        33.52170127331002    0.05559464291174    0.00217221765095
C        34.73937378249174    0.06384443820438    0.00195224121045
C        36.08169047862344    0.06946887244076    0.00104664185444
C        37.29947564037565    0.07161998013084   -0.00057054438659
C        47.14809541236770    0.04872745002765   -0.02157454122158
C        48.36593426314231    0.04614746494651   -0.02152372856720
C        49.70757035707517    0.04450790177118   -0.02156063430537
C        50.92540574920556    0.04343072999351   -0.02085188192452
C        60.77118065429715    0.04345424165051   -0.01993501568125
C        61.98900633168971    0.04073018140599   -0.02049405089686
C        63.33063044248955    0.03669780179124   -0.02131111220299
C        64.54846097161935    0.03172660692270   -0.02080475529667
C        74.39685399836259   -0.00909265248312   -0.00612003062830
C        75.61456731300794   -0.00913696305296   -0.00412912034921
C        76.95701086837694   -0.00631177564967   -0.00338876059283
C        78.17462406996769   -0.00103443992705   -0.00322842841470
Fe       42.22419097642165    0.06052069504424   -0.01301117688475
C        39.74995178580393   -3.32546340985123    0.37923082066111
C        38.75051883305960   -2.41787144940291    0.27762082336842
C        39.38118888651031   -1.14201081381435    0.13093198149737
C        38.69534783603583    0.06938288429225   -0.00355599797209
C        39.38644920934700    1.27726136332691   -0.14158673037533
C        38.76138016007610    2.55623421325894   -0.28509097280915
C        39.76477854267648    3.45878470260544   -0.39243793417318
C        40.99456014468227    2.72484171651406   -0.31370641115321
N        40.74181534228363    1.38672941759566   -0.15951081330516
C        42.23163662418716    3.33371848228548   -0.38918509672753
C        43.46621640919818    2.71888348023283   -0.32318075224219
C        44.69939012861796    3.44605642757740   -0.41135315484869
C        45.69855592031157    2.53824775596110   -0.30879887676736
C        45.06738671508577    1.26298394292016   -0.15917794174814
N        43.71275267145645    1.37964494932936   -0.16890868219972
C        45.75278782095419    0.05187588881785   -0.02044468620583
C        45.06204090885014   -1.15597936506882    0.11999256131466
C        45.68763248224594   -2.43446332930450    0.26551425486189
C        44.68449879906222   -3.33753626590586    0.37104218399122
C        43.45453586272109   -2.60420882569377    0.28942560194315
N        43.70691454040649   -1.26602411117040    0.13537054891586
C        42.21728016857360   -3.21290175585864    0.36163077269687
C        40.98291717392237   -2.59769720687613    0.29368503244624
N        40.73602682259941   -1.25827501189924    0.14134866220086
H        39.67870607672689   -4.38905737466668    0.50092073233300
H        37.68958614215423   -2.57442225823162    0.29790039321407
H        37.70110575918275    2.71798760459094   -0.29949621084880
H        39.69820826698469    4.52270607060830   -0.51384837070257
H        42.23378238407719    4.40754455412973   -0.51295652023408
H        44.77116043070305    4.50937689176730   -0.53503297671559
H        46.75957978980485    2.69424516356032   -0.32996855739167
H        46.74796062474125   -2.59567068130623    0.28175371878678
H        44.75157161347208   -4.40137571148358    0.49289558799291
H        42.21464182966899   -4.28681063990537    0.48464136178656
Fe       55.84829554062359    0.04366151634661   -0.02000849190985
C        53.38119862588138   -3.34743220589592    0.38012450322809
C        52.38014539470461   -2.44223644098177    0.27299229304975
C        53.00868479502277   -1.16579896052499    0.12247437263142
C        52.32069485318469    0.04335573366369   -0.02035722579244
C        53.00856855724363    1.25262261304092   -0.16288584982432
C        52.37985478326144    2.52896133447371   -0.31354596158570
C        53.38077278609286    3.43431634190524   -0.42051878022567
C        54.61249507467637    2.70452327538227   -0.33447922281234
N        54.36342418070732    1.36615494739837   -0.17638821631581
C        55.84809761508634    3.31652776727426   -0.40724274202777
C        57.08382149828774    2.70468866721932   -0.33506794229896
C        58.31545027449828    3.43457516569847   -0.42175451806019
C        59.31649987324029    2.52939547728602   -0.31438760519678
C        58.68794501021087    1.25305848867011   -0.16306324645881
N        57.33307102879690    1.36643031252052   -0.17639347119226
C        59.37589894992005    0.04396221280797   -0.01979151402494
C        58.68801681603070   -1.16521019896616    0.12363846359903
C        59.31675725762673   -2.44144490349714    0.27509216829340
C        58.31584862906525   -3.34680928836371    0.38209946851010
C        57.08412329282567   -2.61712037847007    0.29531984126569
N        57.33317323437630   -1.27879173584461    0.13681970908415
C        55.84851975892534   -3.22921811252535    0.36716876415501
C        54.61281375990782   -2.61743896794680    0.29430718548758
N        54.36355268879148   -1.27911429137058    0.13620269155819
H        53.31182762612369   -4.41069998637287    0.50560522649112
H        51.31945281399373   -2.60072026749696    0.29148741971290
H        51.31914275073758    2.68726756348935   -0.33211838527056
H        53.31123988289032    4.49757347723547   -0.54600495779691
H        55.84797928073343    4.38995086101377   -0.53437618357549
H        58.38482788383665    4.49776126695068   -0.54794297685447
H        60.37720597533037    2.68781470578544   -0.33319152106355
H        60.37747193094214   -2.59968608882533    0.29412212565378
H        58.38540798595951   -4.41000596385427    0.50812030420442
H        55.84861371113462   -4.30267040056317    0.49404607913176
Fe       69.47221335640337    0.01036760498909   -0.01705175968871
C        66.98944648453281   -3.37112360248195    0.36749811904443
C        65.99235869064451   -2.46070824381059    0.26791959318447
C        66.62643954892546   -1.18666674575995    0.12013005307060
C        65.94375870470539    0.02574594720748   -0.02055666699928
C        66.63717222564763    1.23202086611616   -0.16125128395859
C        66.01448017569825    2.51125027247315   -0.31253982650945
C        67.01964931153813    3.41274798123509   -0.41206659542061
C        68.24793729133104    2.67775424537145   -0.32064322515169
N        67.99254831838761    1.33991748126729   -0.16863977875789
C        69.48652335313392    3.28525500501469   -0.37874109747091
C        70.71941364728283    2.66841597679778   -0.29990080713034
C        71.95404440822122    3.39521987973950   -0.36816267557407
C        72.95135557458940    2.48560922369102   -0.26412417183672
C        72.31774819471195    1.20943066320720   -0.13331879618786
N        70.96317838181361    1.32768582134448   -0.15427558500662
C        73.00082251766443   -0.00450197095541   -0.00897007341752
C        72.30719982868878   -1.21269484308358    0.11162157505147
C        72.92943479455199   -2.49430060298457    0.24381169921228
C        71.92401886557076   -3.39566594720727    0.34159876245326
C        70.69585221883359   -2.65841441115080    0.26834107600768
N        70.95155757135747   -1.31960611172235    0.12579550957485
C        69.45742541970701   -3.26488053954749    0.34103462646485
C        68.22427671879164   -2.64668020235026    0.27999071782627
N        67.98080709302063   -1.30641626623239    0.12971624121789
H        66.91527176400088   -4.43457215906864    0.48867853962545
H        64.93098293608310   -2.61424129636279    0.28948159181200
H        64.95451969256602    2.67396942764103   -0.33646193285366
H        66.95501277516134    4.47656748068308   -0.53544448080216
H        69.49160114769289    4.35955989682045   -0.49815562624011
H        72.02774681656305    4.45959255245992   -0.48122533295102
H        74.01264137860444    2.64082927879641   -0.27386497796162
H        73.98935603877794   -2.65834074650246    0.25857665210743
H        71.98816540036169   -4.46077538948408    0.45351730407739
H        69.45285625041150   -4.33939122323645    0.45861756128348
